LAMMPS (23 Jun 2022 - Update 3)
###

#Sets up LAMMPS environment for python script to iterate over

###

###

#Box and units

###

units lj          #use dimensionless LJ units

atom_style angle  #atoms with bonds and Angles

boundary m m m    #periodic (we do not want our sphere to be messed around with)

###

# Pair interactions require lists of neighbours to be calculated

#TODO: Optimize these settings

###

neighbor 1.9 bin

neigh_modify every 1 delay 1 check yes

###

# READ configuration data file

###

read_data config.straight

Reading data file ...
  orthogonal box = (-256 -256 -256) to (256 256 256)
  reading atoms ...
  512 atoms
  scanning bonds ...
  scanning angles ...
  reading bonds ...
  511 bonds
  reading angles ...
  510 angles
Finding 1-2 1-3 1-4 neighbors ...
     2 = max # of 1-2 neighbors
     2 = max # of 1-3 neighbors
     4 = max # of 1-4 neighbors
     6 = max # of special neighbors

###

# Dump configurations of relaxation

###

dump dum1 all custom 10000 dump.relax id type x y z

dump_modify dum1  sort id

# every 1000 time steps, each atom's id, type, x,y,z coords and x,y,z are output.

###

# Set up interactions - start with 'soft' potentials

###

###

## angle potential: Using K=16 to prevent overlaps when we switch to the hard potentials

###

angle_style  cosine

angle_coeff   1  16.0

## Between bonded atoms

bond_style   harmonic

# For style harmonic, specify:

#   * bond type

#   * K (energy/distance^2)

#   * R0 (distance)

bond_coeff   1   90.0   1.1

## Between non-bonded atoms

pair_style     soft 1.12246152962189

#  pair_coeff for soft, specify 3:

#    * atom type interacting with

#    * atom type

#    * energy - 0 to allow overlapping pairs

#    * cutoff

pair_coeff 1 1  1.0 1.12246152962189

###

# Set up fixes and velocities

###

variable seed equal 315987     # a seed for the thermostat

velocity all zero linear   #0 velocity initially

#TODO: IS THIS AN APPROPRIATE INTEGRATOR?

fix 1 all nve                             # NVE integrator

fix 2 all langevin   1.0 1.0 1.0 315987

##### Output thermodynamic info  (temperature, energy, pressure, etc.) #####

thermo 10000

thermo_style   custom   step  temp  epair  emol pe ke etotal  press  vol

############################################################################

##### Output thermodynamic info to file  ###################################

variable t equal step

variable mytemp equal temp

variable myepair equal epair

#moved the above to the for loop, neglected to move the rest... since well

#then i'd have to botehr with redefining variables

############################################################################

############################################################################

#### Set up a compute for R_g

compute myRG2compute all gyration

#### and write it to a file

variable RG2 equal c_myRG2compute

#moved the above to the for loop in tha python script like the thermo too!

############################################################################

###

#Incremenet COMM cutoff since they get quite pesky about it and it leads to

#issues like atoms not communicating properly when stretched

###

comm_modify cutoff 3.55

###

# set timestep of integrator

###

timestep 0.01

###

# run integration for a number of steps to equilibrate with soft potnentials

###

run 10000

Generated 0 of 0 mixed pair_coeff terms from geometric mixing rule
  update every 1 steps, delay 1 steps, check yes
Step          Temp          E_pair         E_mol          PotEng         KinEng         TotEng         Press          Volume
0   0              0              2.0210449      2.0210449      0              2.0210449      3.2551959e-05  1.3421773e+08
Loop time of 4.70703 on 4 procs for 10000 steps with 512 atoms

###

# Now switch to LJ potential and FENE bonds

###

## Between bonded atoms

bond_style   fene

special_bonds fene #<=== I M P O R T A N T prevents LJ from being counted twice

Finding 1-2 1-3 1-4 neighbors ...
     2 = max # of 1-2 neighbors
     6 = max # of special neighbors
# For style FENE, specify:

#   * bond type

#   * K (energy/distance^2)

#   * R0 (distance)

#   * epsilon

#   * sigma

bond_coeff   1    50.0   1.6   1.0   1.0

## Between non-bonded atoms

pair_style      lj/cut 1.12246152962189

pair_modify shift yes        # option to ensure energy is calculated corectly

#  pair_coeff for LJ, specify 4:

#    * atom type interacting with

#    * atom type

#    * energy - again set to 0 to allow overlaps

#    * mean diameter of the two atom types

#    * cutoff

pair_coeff      1 1 1.0 1.0 1.12246152962189

#brief stint under new potentials to allow it to relax under them

run 10000

Generated 0 of 0 mixed pair_coeff terms from geometric mixing rule
  update every 1 steps, delay 1 steps, check yes
Step          Temp          E_pair         E_mol          PotEng         KinEng         TotEng         Press          Volume
10000   0.96122389     0              44.027948      44.027948      1.4390197      45.466967     -0.0001460119   1.3421773e+08
Loop time of 4.03458 on 4 procs for 10000 steps with 512 atoms

#disables relaxation dump

undump dum1

###

# now do a longer run with the FENE LJ potentials, relaxed in every possible way, expect to catch a lot of oscillation

# this also makes the dump we'll actually use for data analysis

###

angle_coeff   1  0.25
print ">>>>>>>>>>>>>>>>>>>>>>>>>>>>>>>>>>>>>>>>>>>>>>>>>>>>k: 0.25 "
>>>>>>>>>>>>>>>>>>>>>>>>>>>>>>>>>>>>>>>>>>>>>>>>>>>>k: 0.25
run 10000
Generated 0 of 0 mixed pair_coeff terms from geometric mixing rule
Step          Temp          E_pair         E_mol          PotEng         KinEng         TotEng         Press          Volume
20000   1.0300878      0              31.223549      31.223549      1.5421138      32.765663     -6.478149e-06   1.3421773e+08
Loop time of 5.26829 on 4 procs for 10000 steps with 512 atoms

dump dum2 all custom 10000 dump_N512_k0.25.dynamics id type x y z
dump_modify dum2  sort id
run 250000
Generated 0 of 0 mixed pair_coeff terms from geometric mixing rule
Step          Temp          E_pair         E_mol          PotEng         KinEng         TotEng         Press          Volume
30000   1.0015327      0.00012142772  31.342295      31.342416      1.4993649      32.841781     -9.8787772e-06  1.3421773e+08
Averages over the last 13 of 26 rows, steps 160000 to 280000:
Temp E_pair E_mol PotEng KinEng TotEng Press Volume
1.00034 0.013414 31.348 31.3614 1.49757 32.859 -8.16308e-07 1.34218e+08
Loop time of 136.75 on 4 procs for 250000 steps with 512 atoms

write_restart 	restart._N512_k0.25.dat
System init for write_restart ...
Generated 0 of 0 mixed pair_coeff terms from geometric mixing rule
unfix mythermofile
unfix myRG2file
undump dum2
angle_coeff   1  0.5
print ">>>>>>>>>>>>>>>>>>>>>>>>>>>>>>>>>>>>>>>>>>>>>>>>>>>>k: 0.5 "
>>>>>>>>>>>>>>>>>>>>>>>>>>>>>>>>>>>>>>>>>>>>>>>>>>>>k: 0.5
run 10000
Generated 0 of 0 mixed pair_coeff terms from geometric mixing rule
Step          Temp          E_pair         E_mol          PotEng         KinEng         TotEng         Press          Volume
280000   0.94214928     0.021210709    31.491325      31.512536      1.4104637      32.923         3.3614402e-06  1.3421773e+08
Loop time of 5.40403 on 4 procs for 10000 steps with 512 atoms

dump dum2 all custom 10000 dump_N512_k0.5.dynamics id type x y z
dump_modify dum2  sort id
run 250000
Generated 0 of 0 mixed pair_coeff terms from geometric mixing rule
Step          Temp          E_pair         E_mol          PotEng         KinEng         TotEng         Press          Volume
290000   0.97844426     0.005936584    31.484222      31.490159      1.4647998      32.954959      3.5416333e-06  1.3421773e+08
Averages over the last 13 of 26 rows, steps 420000 to 540000:
Temp E_pair E_mol PotEng KinEng TotEng Press Volume
0.994273 0.0142945 31.4672 31.4815 1.4885 32.97 -1.56862e-06 1.34218e+08
Loop time of 136.922 on 4 procs for 250000 steps with 512 atoms

write_restart 	restart._N512_k0.5.dat
System init for write_restart ...
Generated 0 of 0 mixed pair_coeff terms from geometric mixing rule
unfix mythermofile
unfix myRG2file
undump dum2
angle_coeff   1  1
print ">>>>>>>>>>>>>>>>>>>>>>>>>>>>>>>>>>>>>>>>>>>>>>>>>>>>k: 1 "
>>>>>>>>>>>>>>>>>>>>>>>>>>>>>>>>>>>>>>>>>>>>>>>>>>>>k: 1
run 10000
Generated 0 of 0 mixed pair_coeff terms from geometric mixing rule
Step          Temp          E_pair         E_mol          PotEng         KinEng         TotEng         Press          Volume
540000   1.0234285      0.010879436    31.739122      31.750001      1.5321444      33.282146     -1.3854282e-06  1.3421773e+08
Loop time of 5.62047 on 4 procs for 10000 steps with 512 atoms

dump dum2 all custom 10000 dump_N512_k1.dynamics id type x y z
dump_modify dum2  sort id
run 250000
Generated 0 of 0 mixed pair_coeff terms from geometric mixing rule
Step          Temp          E_pair         E_mol          PotEng         KinEng         TotEng         Press          Volume
550000   0.98939891     0.0094706603   31.712245      31.721716      1.4811997      33.202916     -3.5215459e-06  1.3421773e+08
Averages over the last 13 of 26 rows, steps 680000 to 800000:
Temp E_pair E_mol PotEng KinEng TotEng Press Volume
0.991125 0.00914137 31.6898 31.699 1.48378 33.1827 1.28256e-06 1.34218e+08
Loop time of 137.069 on 4 procs for 250000 steps with 512 atoms

write_restart 	restart._N512_k1.dat
System init for write_restart ...
Generated 0 of 0 mixed pair_coeff terms from geometric mixing rule
unfix mythermofile
unfix myRG2file
undump dum2
angle_coeff   1  2
print ">>>>>>>>>>>>>>>>>>>>>>>>>>>>>>>>>>>>>>>>>>>>>>>>>>>>k: 2 "
>>>>>>>>>>>>>>>>>>>>>>>>>>>>>>>>>>>>>>>>>>>>>>>>>>>>k: 2
run 10000
Generated 0 of 0 mixed pair_coeff terms from geometric mixing rule
Step          Temp          E_pair         E_mol          PotEng         KinEng         TotEng         Press          Volume
800000   0.95495741     0.011099933    32.171318      32.182418      1.4296384      33.612057      2.3256926e-06  1.3421773e+08
Loop time of 5.21348 on 4 procs for 10000 steps with 512 atoms

dump dum2 all custom 10000 dump_N512_k2.dynamics id type x y z
dump_modify dum2  sort id
run 250000
Generated 0 of 0 mixed pair_coeff terms from geometric mixing rule
Step          Temp          E_pair         E_mol          PotEng         KinEng         TotEng         Press          Volume
810000   1.0017614      0.0038334306   31.922842      31.926675      1.4997073      33.426383     -2.1441051e-06  1.3421773e+08
Averages over the last 13 of 26 rows, steps 940000 to 1060000:
Temp E_pair E_mol PotEng KinEng TotEng Press Volume
1.01618 0.00324115 31.9344 31.9376 1.52129 33.4589 -9.28453e-08 1.34218e+08
Loop time of 134.424 on 4 procs for 250000 steps with 512 atoms

write_restart 	restart._N512_k2.dat
System init for write_restart ...
Generated 0 of 0 mixed pair_coeff terms from geometric mixing rule
unfix mythermofile
unfix myRG2file
undump dum2
angle_coeff   1  4
print ">>>>>>>>>>>>>>>>>>>>>>>>>>>>>>>>>>>>>>>>>>>>>>>>>>>>k: 4 "
>>>>>>>>>>>>>>>>>>>>>>>>>>>>>>>>>>>>>>>>>>>>>>>>>>>>k: 4
run 10000
Generated 0 of 0 mixed pair_coeff terms from geometric mixing rule
Step          Temp          E_pair         E_mol          PotEng         KinEng         TotEng         Press          Volume
1060000   1.0197198      0.0019981443   32.681293      32.683291      1.5265922      34.209883      7.9343533e-07  1.3421773e+08
Loop time of 5.20103 on 4 procs for 10000 steps with 512 atoms

dump dum2 all custom 10000 dump_N512_k4.dynamics id type x y z
dump_modify dum2  sort id
run 250000
Generated 0 of 0 mixed pair_coeff terms from geometric mixing rule
Step          Temp          E_pair         E_mol          PotEng         KinEng         TotEng         Press          Volume
1070000   1.0022518      0.00052640411  32.115601      32.116128      1.5004413      33.616569      1.5829325e-06  1.3421773e+08
Averages over the last 13 of 26 rows, steps 1200000 to 1320000:
Temp E_pair E_mol PotEng KinEng TotEng Press Volume
0.998086 0.000888633 32.1283 32.1292 1.4942 33.6234 -7.16989e-08 1.34218e+08
Loop time of 132.598 on 4 procs for 250000 steps with 512 atoms

write_restart 	restart._N512_k4.dat
System init for write_restart ...
Generated 0 of 0 mixed pair_coeff terms from geometric mixing rule
unfix mythermofile
unfix myRG2file
undump dum2
angle_coeff   1  8
print ">>>>>>>>>>>>>>>>>>>>>>>>>>>>>>>>>>>>>>>>>>>>>>>>>>>>k: 8 "
>>>>>>>>>>>>>>>>>>>>>>>>>>>>>>>>>>>>>>>>>>>>>>>>>>>>k: 8
run 10000
Generated 0 of 0 mixed pair_coeff terms from geometric mixing rule
Step          Temp          E_pair         E_mol          PotEng         KinEng         TotEng         Press          Volume
1320000   0.96909301     0.0027232237   32.963625      32.966348      1.4508004      34.417149     -1.1070156e-06  1.3421773e+08
Loop time of 4.72575 on 4 procs for 10000 steps with 512 atoms

dump dum2 all custom 10000 dump_N512_k8.dynamics id type x y z
dump_modify dum2  sort id
run 250000
Generated 0 of 0 mixed pair_coeff terms from geometric mixing rule
Step          Temp          E_pair         E_mol          PotEng         KinEng         TotEng         Press          Volume
1330000   1.0128782      0.0050101768   32.228034      32.233044      1.5163498      33.749394     -7.8198376e-07  1.3421773e+08
Averages over the last 13 of 26 rows, steps 1460000 to 1580000:
Temp E_pair E_mol PotEng KinEng TotEng Press Volume
1.00906 5.48441e-05 32.1892 32.1893 1.51063 33.6999 -5.57357e-07 1.34218e+08
Loop time of 120.542 on 4 procs for 250000 steps with 512 atoms

write_restart 	restart._N512_k8.dat
System init for write_restart ...
Generated 0 of 0 mixed pair_coeff terms from geometric mixing rule
unfix mythermofile
unfix myRG2file
undump dum2
angle_coeff   1  16
print ">>>>>>>>>>>>>>>>>>>>>>>>>>>>>>>>>>>>>>>>>>>>>>>>>>>>k: 16 "
>>>>>>>>>>>>>>>>>>>>>>>>>>>>>>>>>>>>>>>>>>>>>>>>>>>>k: 16
run 10000
Generated 0 of 0 mixed pair_coeff terms from geometric mixing rule
Step          Temp          E_pair         E_mol          PotEng         KinEng         TotEng         Press          Volume
1580000   1.0558807      0              33.237181      33.237181      1.5807276      34.817909     -9.3253196e-07  1.3421773e+08
Loop time of 4.22664 on 4 procs for 10000 steps with 512 atoms

dump dum2 all custom 10000 dump_N512_k16.dynamics id type x y z
dump_modify dum2  sort id
run 250000
Generated 0 of 0 mixed pair_coeff terms from geometric mixing rule
Step          Temp          E_pair         E_mol          PotEng         KinEng         TotEng         Press          Volume
1590000   1.0057739      0              32.26294       32.26294       1.5057143      33.768654     -2.1104183e-07  1.3421773e+08
Averages over the last 13 of 26 rows, steps 1720000 to 1840000:
Temp E_pair E_mol PotEng KinEng TotEng Press Volume
0.995945 0 32.2032 32.2032 1.491 33.6942 -5.37352e-07 1.34218e+08
Loop time of 105.425 on 4 procs for 250000 steps with 512 atoms

write_restart 	restart._N512_k16.dat
System init for write_restart ...
Generated 0 of 0 mixed pair_coeff terms from geometric mixing rule
unfix mythermofile
unfix myRG2file
undump dum2
angle_coeff   1  32
print ">>>>>>>>>>>>>>>>>>>>>>>>>>>>>>>>>>>>>>>>>>>>>>>>>>>>k: 32 "
>>>>>>>>>>>>>>>>>>>>>>>>>>>>>>>>>>>>>>>>>>>>>>>>>>>>k: 32
run 10000
Generated 0 of 0 mixed pair_coeff terms from geometric mixing rule
Step          Temp          E_pair         E_mol          PotEng         KinEng         TotEng         Press          Volume
1840000   0.91790115     0              33.247246      33.247246      1.3741626      34.621408      9.8268954e-08  1.3421773e+08
Loop time of 3.72345 on 4 procs for 10000 steps with 512 atoms

dump dum2 all custom 10000 dump_N512_k32.dynamics id type x y z
dump_modify dum2  sort id
run 250000
Generated 0 of 0 mixed pair_coeff terms from geometric mixing rule
Step          Temp          E_pair         E_mol          PotEng         KinEng         TotEng         Press          Volume
1850000   1.0386208      0              32.177302      32.177302      1.5548884      33.73219      -4.0296701e-08  1.3421773e+08
Averages over the last 13 of 26 rows, steps 1980000 to 2100000:
Temp E_pair E_mol PotEng KinEng TotEng Press Volume
1.00414 0 32.2741 32.2741 1.50327 33.7774 -3.68172e-07 1.34218e+08
Loop time of 92.6393 on 4 procs for 250000 steps with 512 atoms

write_restart 	restart._N512_k32.dat
System init for write_restart ...
Generated 0 of 0 mixed pair_coeff terms from geometric mixing rule
unfix mythermofile
unfix myRG2file
undump dum2
angle_coeff   1  64
print ">>>>>>>>>>>>>>>>>>>>>>>>>>>>>>>>>>>>>>>>>>>>>>>>>>>>k: 64 "
>>>>>>>>>>>>>>>>>>>>>>>>>>>>>>>>>>>>>>>>>>>>>>>>>>>>k: 64
run 10000
Generated 0 of 0 mixed pair_coeff terms from geometric mixing rule
Step          Temp          E_pair         E_mol          PotEng         KinEng         TotEng         Press          Volume
2100000   1.0180465      0              33.415995      33.415995      1.5240872      34.940082     -4.5862858e-06  1.3421773e+08
Loop time of 3.35241 on 4 procs for 10000 steps with 512 atoms

dump dum2 all custom 10000 dump_N512_k64.dynamics id type x y z
dump_modify dum2  sort id
run 250000
Generated 0 of 0 mixed pair_coeff terms from geometric mixing rule
Step          Temp          E_pair         E_mol          PotEng         KinEng         TotEng         Press          Volume
2110000   0.97780296     0              32.372875      32.372875      1.4638398      33.836715     -1.0870548e-06  1.3421773e+08
Averages over the last 13 of 26 rows, steps 2240000 to 2360000:
Temp E_pair E_mol PotEng KinEng TotEng Press Volume
0.996366 0 32.2523 32.2523 1.49163 33.744 -1.22792e-07 1.34218e+08
Loop time of 83.4443 on 4 procs for 250000 steps with 512 atoms

write_restart 	restart._N512_k64.dat
System init for write_restart ...
Generated 0 of 0 mixed pair_coeff terms from geometric mixing rule
unfix mythermofile
unfix myRG2file
undump dum2
angle_coeff   1  128
print ">>>>>>>>>>>>>>>>>>>>>>>>>>>>>>>>>>>>>>>>>>>>>>>>>>>>k: 128 "
>>>>>>>>>>>>>>>>>>>>>>>>>>>>>>>>>>>>>>>>>>>>>>>>>>>>k: 128
run 10000
Generated 0 of 0 mixed pair_coeff terms from geometric mixing rule
Step          Temp          E_pair         E_mol          PotEng         KinEng         TotEng         Press          Volume
2360000   1.0241237      0              33.427887      33.427887      1.5331852      34.961072      4.5217557e-07  1.3421773e+08
Loop time of 3.1203 on 4 procs for 10000 steps with 512 atoms

dump dum2 all custom 10000 dump_N512_k128.dynamics id type x y z
dump_modify dum2  sort id
run 250000
Generated 0 of 0 mixed pair_coeff terms from geometric mixing rule
Step          Temp          E_pair         E_mol          PotEng         KinEng         TotEng         Press          Volume
2370000   0.94820297     0              32.341665      32.341665      1.4195265      33.761192      1.275432e-07   1.3421773e+08
Averages over the last 13 of 26 rows, steps 2500000 to 2620000:
Temp E_pair E_mol PotEng KinEng TotEng Press Volume
1.0163 0 32.2687 32.2687 1.52147 33.7902 -3.28512e-07 1.34218e+08
Loop time of 76.2612 on 4 procs for 250000 steps with 512 atoms

write_restart 	restart._N512_k128.dat
System init for write_restart ...
Generated 0 of 0 mixed pair_coeff terms from geometric mixing rule
unfix mythermofile
unfix myRG2file
undump dum2
