LAMMPS (23 Jun 2022 - Update 3)
###

#Sets up LAMMPS environment for python script to iterate over

###

###

#Box and units

###

units lj          #use dimensionless LJ units

atom_style angle  #atoms with bonds and Angles

boundary m m m    #periodic (we do not want our sphere to be messed around with)

###

# Pair interactions require lists of neighbours to be calculated

#TODO: Optimize these settings

###

neighbor 1.9 bin

neigh_modify every 1 delay 1 check yes

###

# READ configuration data file

###

read_data config.straight

Reading data file ...
  orthogonal box = (-64 -64 -64) to (64 64 64)
  reading atoms ...
  128 atoms
  scanning bonds ...
  scanning angles ...
  reading bonds ...
  127 bonds
  reading angles ...
  126 angles
Finding 1-2 1-3 1-4 neighbors ...
     2 = max # of 1-2 neighbors
     2 = max # of 1-3 neighbors
     4 = max # of 1-4 neighbors
     6 = max # of special neighbors

###

# Dump configurations of relaxation

###

dump dum1 all custom 10000 dump.relax id type x y z

dump_modify dum1  sort id

# every 1000 time steps, each atom's id, type, x,y,z coords and x,y,z are output.

###

# Set up interactions - start with 'soft' potentials

###

###

## angle potential: Using K=16 to prevent overlaps when we switch to the hard potentials

###

angle_style  cosine

angle_coeff   1  16.0

## Between bonded atoms

bond_style   harmonic

# For style harmonic, specify:

#   * bond type

#   * K (energy/distance^2)

#   * R0 (distance)

bond_coeff   1   90.0   1.1

## Between non-bonded atoms

pair_style     soft 1.12246152962189

#  pair_coeff for soft, specify 3:

#    * atom type interacting with

#    * atom type

#    * energy - 0 to allow overlapping pairs

#    * cutoff

pair_coeff 1 1  1.0 1.12246152962189

###

# Set up fixes and velocities

###

variable seed equal 315987     # a seed for the thermostat

velocity all zero linear   #0 velocity initially

#TODO: IS THIS AN APPROPRIATE INTEGRATOR?

fix 1 all nve                             # NVE integrator

fix 2 all langevin   1.0 1.0 1.0 315987

##### Output thermodynamic info  (temperature, energy, pressure, etc.) #####

thermo 10000

thermo_style   custom   step  temp  epair  emol pe ke etotal  press  vol

############################################################################

##### Output thermodynamic info to file  ###################################

variable t equal step

variable mytemp equal temp

variable myepair equal epair

#moved the above to the for loop, neglected to move the rest... since well

#then i'd have to botehr with redefining variables

############################################################################

############################################################################

#### Set up a compute for R_g

compute myRG2compute all gyration

#### and write it to a file

variable RG2 equal c_myRG2compute

#moved the above to the for loop in tha python script like the thermo too!

############################################################################

###

#Incremenet COMM cutoff since they get quite pesky about it and it leads to

#issues like atoms not communicating properly when stretched

###

comm_modify cutoff 3.55

###

# set timestep of integrator

###

timestep 0.01

###

# run integration for a number of steps to equilibrate with soft potnentials

###

run 10000

Generated 0 of 0 mixed pair_coeff terms from geometric mixing rule
  update every 1 steps, delay 1 steps, check yes
Step          Temp          E_pair         E_mol          PotEng         KinEng         TotEng         Press          Volume
0   0              0              2.0091797      2.0091797      0              2.0091797      0.00051777363  2097152
Loop time of 0.342441 on 4 procs for 10000 steps with 128 atoms

###

# Now switch to LJ potential and FENE bonds

###

## Between bonded atoms

bond_style   fene

special_bonds fene #<=== I M P O R T A N T prevents LJ from being counted twice

Finding 1-2 1-3 1-4 neighbors ...
     2 = max # of 1-2 neighbors
     6 = max # of special neighbors
# For style FENE, specify:

#   * bond type

#   * K (energy/distance^2)

#   * R0 (distance)

#   * epsilon

#   * sigma

bond_coeff   1    50.0   1.6   1.0   1.0

## Between non-bonded atoms

pair_style      lj/cut 1.12246152962189

pair_modify shift yes        # option to ensure energy is calculated corectly

#  pair_coeff for LJ, specify 4:

#    * atom type interacting with

#    * atom type

#    * energy - again set to 0 to allow overlaps

#    * mean diameter of the two atom types

#    * cutoff

pair_coeff      1 1 1.0 1.0 1.12246152962189

#brief stint under new potentials to allow it to relax under them

run 10000

Generated 0 of 0 mixed pair_coeff terms from geometric mixing rule
  update every 1 steps, delay 1 steps, check yes
Step          Temp          E_pair         E_mol          PotEng         KinEng         TotEng         Press          Volume
10000   1.0782518      0              42.4752        42.4752        1.604742       44.079942     -0.002219446    2097152
Loop time of 0.383638 on 4 procs for 10000 steps with 128 atoms

#disables relaxation dump

undump dum1

###

# now do a longer run with the FENE LJ potentials, relaxed in every possible way, expect to catch a lot of oscillation

# this also makes the dump we'll actually use for data analysis

###

angle_coeff   1  0.25
print ">>>>>>>>>>>>>>>>>>>>>>>>>>>>>>>>>>>>>>>>>>>>>>>>>>>>k: 0.25 "
>>>>>>>>>>>>>>>>>>>>>>>>>>>>>>>>>>>>>>>>>>>>>>>>>>>>k: 0.25
run 10000
Generated 0 of 0 mixed pair_coeff terms from geometric mixing rule
Step          Temp          E_pair         E_mol          PotEng         KinEng         TotEng         Press          Volume
20000   0.98699643     0              30.9687        30.9687        1.4689283      32.437628     -1.8044414e-05  2097152
Loop time of 0.379462 on 4 procs for 10000 steps with 128 atoms

dump dum2 all custom 10000 dump_N128_k0.25.dynamics id type x y z
dump_modify dum2  sort id
run 250000
Generated 0 of 0 mixed pair_coeff terms from geometric mixing rule
Step          Temp          E_pair         E_mol          PotEng         KinEng         TotEng         Press          Volume
30000   1.0432921      0.019635971    31.2734        31.293036      1.552712       32.845748      9.9055181e-05  2097152
Averages over the last 13 of 26 rows, steps 160000 to 280000:
Temp E_pair E_mol PotEng KinEng TotEng Press Volume
1.02138 0.0122999 31.1391 31.1514 1.52011 32.6716 2.09498e-05 2.09715e+06
Loop time of 7.57015 on 4 procs for 250000 steps with 128 atoms

write_restart 	restart._N128_k0.25.dat
System init for write_restart ...
Generated 0 of 0 mixed pair_coeff terms from geometric mixing rule
unfix mythermofile
unfix myRG2file
undump dum2
angle_coeff   1  0.5
print ">>>>>>>>>>>>>>>>>>>>>>>>>>>>>>>>>>>>>>>>>>>>>>>>>>>>k: 0.5 "
>>>>>>>>>>>>>>>>>>>>>>>>>>>>>>>>>>>>>>>>>>>>>>>>>>>>k: 0.5
run 10000
Generated 0 of 0 mixed pair_coeff terms from geometric mixing rule
Step          Temp          E_pair         E_mol          PotEng         KinEng         TotEng         Press          Volume
280000   0.99172626     0.0047714069   31.266793      31.271565      1.4759676      32.747532      2.9838909e-05  2097152
Loop time of 0.259234 on 4 procs for 10000 steps with 128 atoms

dump dum2 all custom 10000 dump_N128_k0.5.dynamics id type x y z
dump_modify dum2  sort id
run 250000
Generated 0 of 0 mixed pair_coeff terms from geometric mixing rule
Step          Temp          E_pair         E_mol          PotEng         KinEng         TotEng         Press          Volume
290000   0.98160044     0.020561954    31.298762      31.319324      1.4608975      32.780222     -7.5647145e-05  2097152
Averages over the last 13 of 26 rows, steps 420000 to 540000:
Temp E_pair E_mol PotEng KinEng TotEng Press Volume
0.956841 0.0186587 31.3017 31.3204 1.42405 32.7444 -1.90925e-05 2.09715e+06
Loop time of 6.91862 on 4 procs for 250000 steps with 128 atoms

write_restart 	restart._N128_k0.5.dat
System init for write_restart ...
Generated 0 of 0 mixed pair_coeff terms from geometric mixing rule
unfix mythermofile
unfix myRG2file
undump dum2
angle_coeff   1  1
print ">>>>>>>>>>>>>>>>>>>>>>>>>>>>>>>>>>>>>>>>>>>>>>>>>>>>k: 1 "
>>>>>>>>>>>>>>>>>>>>>>>>>>>>>>>>>>>>>>>>>>>>>>>>>>>>k: 1
run 10000
Generated 0 of 0 mixed pair_coeff terms from geometric mixing rule
Step          Temp          E_pair         E_mol          PotEng         KinEng         TotEng         Press          Volume
540000   0.92900319     0.0061993697   31.538998      31.545198      1.382618       32.927816     -8.9228855e-05  2097152
Loop time of 0.276994 on 4 procs for 10000 steps with 128 atoms

dump dum2 all custom 10000 dump_N128_k1.dynamics id type x y z
dump_modify dum2  sort id
run 250000
Generated 0 of 0 mixed pair_coeff terms from geometric mixing rule
Step          Temp          E_pair         E_mol          PotEng         KinEng         TotEng         Press          Volume
550000   1.0458819      0.0030153263   31.529572      31.532588      1.5565664      33.089154     -6.2333903e-05  2097152
Averages over the last 13 of 26 rows, steps 680000 to 800000:
Temp E_pair E_mol PotEng KinEng TotEng Press Volume
0.999407 0.0097312 31.5383 31.548 1.4874 33.0354 9.88278e-06 2.09715e+06
Loop time of 6.63004 on 4 procs for 250000 steps with 128 atoms

write_restart 	restart._N128_k1.dat
System init for write_restart ...
Generated 0 of 0 mixed pair_coeff terms from geometric mixing rule
unfix mythermofile
unfix myRG2file
undump dum2
angle_coeff   1  2
print ">>>>>>>>>>>>>>>>>>>>>>>>>>>>>>>>>>>>>>>>>>>>>>>>>>>>k: 2 "
>>>>>>>>>>>>>>>>>>>>>>>>>>>>>>>>>>>>>>>>>>>>>>>>>>>>k: 2
run 10000
Generated 0 of 0 mixed pair_coeff terms from geometric mixing rule
Step          Temp          E_pair         E_mol          PotEng         KinEng         TotEng         Press          Volume
800000   0.96044223     0.010529375    32.079662      32.090192      1.4294082      33.5196        3.0380803e-05  2097152
Loop time of 0.287383 on 4 procs for 10000 steps with 128 atoms

dump dum2 all custom 10000 dump_N128_k2.dynamics id type x y z
dump_modify dum2  sort id
run 250000
Generated 0 of 0 mixed pair_coeff terms from geometric mixing rule
Step          Temp          E_pair         E_mol          PotEng         KinEng         TotEng         Press          Volume
810000   1.0744617      0.0020942917   31.57983       31.581925      1.5991011      33.181026     -2.9123094e-05  2097152
Averages over the last 13 of 26 rows, steps 940000 to 1060000:
Temp E_pair E_mol PotEng KinEng TotEng Press Volume
1.01237 0.00663306 31.7757 31.7823 1.50669 33.289 1.21221e-05 2.09715e+06
Loop time of 7.55097 on 4 procs for 250000 steps with 128 atoms

write_restart 	restart._N128_k2.dat
System init for write_restart ...
Generated 0 of 0 mixed pair_coeff terms from geometric mixing rule
unfix mythermofile
unfix myRG2file
undump dum2
angle_coeff   1  4
print ">>>>>>>>>>>>>>>>>>>>>>>>>>>>>>>>>>>>>>>>>>>>>>>>>>>>k: 4 "
>>>>>>>>>>>>>>>>>>>>>>>>>>>>>>>>>>>>>>>>>>>>>>>>>>>>k: 4
run 10000
Generated 0 of 0 mixed pair_coeff terms from geometric mixing rule
Step          Temp          E_pair         E_mol          PotEng         KinEng         TotEng         Press          Volume
1060000   1.1139342      0.0024497888   32.410583      32.413033      1.6578473      34.07088       6.0708786e-05  2097152
Loop time of 0.284928 on 4 procs for 10000 steps with 128 atoms

dump dum2 all custom 10000 dump_N128_k4.dynamics id type x y z
dump_modify dum2  sort id
run 250000
Generated 0 of 0 mixed pair_coeff terms from geometric mixing rule
Step          Temp          E_pair         E_mol          PotEng         KinEng         TotEng         Press          Volume
1070000   0.98977308     0              31.892857      31.892857      1.4730607      33.365918     -2.2021369e-05  2097152
Averages over the last 13 of 26 rows, steps 1200000 to 1320000:
Temp E_pair E_mol PotEng KinEng TotEng Press Volume
0.990655 3.451e-05 31.9281 31.9281 1.47437 33.4025 2.85508e-05 2.09715e+06
Loop time of 6.65026 on 4 procs for 250000 steps with 128 atoms

write_restart 	restart._N128_k4.dat
System init for write_restart ...
Generated 0 of 0 mixed pair_coeff terms from geometric mixing rule
unfix mythermofile
unfix myRG2file
undump dum2
angle_coeff   1  8
print ">>>>>>>>>>>>>>>>>>>>>>>>>>>>>>>>>>>>>>>>>>>>>>>>>>>>k: 8 "
>>>>>>>>>>>>>>>>>>>>>>>>>>>>>>>>>>>>>>>>>>>>>>>>>>>>k: 8
run 10000
Generated 0 of 0 mixed pair_coeff terms from geometric mixing rule
Step          Temp          E_pair         E_mol          PotEng         KinEng         TotEng         Press          Volume
1320000   0.9210334      0.00044863002  33.030922      33.031371      1.3707567      34.402128      4.3018324e-05  2097152
Loop time of 0.253556 on 4 procs for 10000 steps with 128 atoms

dump dum2 all custom 10000 dump_N128_k8.dynamics id type x y z
dump_modify dum2  sort id
run 250000
Generated 0 of 0 mixed pair_coeff terms from geometric mixing rule
Step          Temp          E_pair         E_mol          PotEng         KinEng         TotEng         Press          Volume
1330000   1.0693183      0              32.01333       32.01333       1.5914463      33.604777     -3.3911961e-05  2097152
Averages over the last 13 of 26 rows, steps 1460000 to 1580000:
Temp E_pair E_mol PotEng KinEng TotEng Press Volume
1.01878 0 31.9779 31.9779 1.51623 33.4941 -3.04005e-06 2.09715e+06
Loop time of 6.57866 on 4 procs for 250000 steps with 128 atoms

write_restart 	restart._N128_k8.dat
System init for write_restart ...
Generated 0 of 0 mixed pair_coeff terms from geometric mixing rule
unfix mythermofile
unfix myRG2file
undump dum2
angle_coeff   1  16
print ">>>>>>>>>>>>>>>>>>>>>>>>>>>>>>>>>>>>>>>>>>>>>>>>>>>>k: 16 "
>>>>>>>>>>>>>>>>>>>>>>>>>>>>>>>>>>>>>>>>>>>>>>>>>>>>k: 16
run 10000
Generated 0 of 0 mixed pair_coeff terms from geometric mixing rule
Step          Temp          E_pair         E_mol          PotEng         KinEng         TotEng         Press          Volume
1580000   1.059124       0              32.865942      32.865942      1.5762743      34.442216     -2.655389e-05   2097152
Loop time of 0.282076 on 4 procs for 10000 steps with 128 atoms

dump dum2 all custom 10000 dump_N128_k16.dynamics id type x y z
dump_modify dum2  sort id
run 250000
Generated 0 of 0 mixed pair_coeff terms from geometric mixing rule
Step          Temp          E_pair         E_mol          PotEng         KinEng         TotEng         Press          Volume
1590000   1.0864471      0              31.859372      31.859372      1.6169388      33.476311     -4.853951e-05   2097152
Averages over the last 13 of 26 rows, steps 1720000 to 1840000:
Temp E_pair E_mol PotEng KinEng TotEng Press Volume
0.975597 0 31.9979 31.9979 1.45196 33.4498 2.68783e-05 2.09715e+06
Loop time of 6.65732 on 4 procs for 250000 steps with 128 atoms

write_restart 	restart._N128_k16.dat
System init for write_restart ...
Generated 0 of 0 mixed pair_coeff terms from geometric mixing rule
unfix mythermofile
unfix myRG2file
undump dum2
angle_coeff   1  32
print ">>>>>>>>>>>>>>>>>>>>>>>>>>>>>>>>>>>>>>>>>>>>>>>>>>>>k: 32 "
>>>>>>>>>>>>>>>>>>>>>>>>>>>>>>>>>>>>>>>>>>>>>>>>>>>>k: 32
run 10000
Generated 0 of 0 mixed pair_coeff terms from geometric mixing rule
Step          Temp          E_pair         E_mol          PotEng         KinEng         TotEng         Press          Volume
1840000   1.0575178      0              32.772756      32.772756      1.573884       34.34664      -1.2156529e-05  2097152
Loop time of 0.239946 on 4 procs for 10000 steps with 128 atoms

dump dum2 all custom 10000 dump_N128_k32.dynamics id type x y z
dump_modify dum2  sort id
run 250000
Generated 0 of 0 mixed pair_coeff terms from geometric mixing rule
Step          Temp          E_pair         E_mol          PotEng         KinEng         TotEng         Press          Volume
1850000   0.99919873     0              32.083131      32.083131      1.4870887      33.57022       3.6056017e-05  2097152
Averages over the last 13 of 26 rows, steps 1980000 to 2100000:
Temp E_pair E_mol PotEng KinEng TotEng Press Volume
0.997486 0 32.0291 32.0291 1.48454 33.5136 1.37516e-06 2.09715e+06
Loop time of 5.51239 on 4 procs for 250000 steps with 128 atoms

write_restart 	restart._N128_k32.dat
System init for write_restart ...
Generated 0 of 0 mixed pair_coeff terms from geometric mixing rule
unfix mythermofile
unfix myRG2file
undump dum2
angle_coeff   1  64
print ">>>>>>>>>>>>>>>>>>>>>>>>>>>>>>>>>>>>>>>>>>>>>>>>>>>>k: 64 "
>>>>>>>>>>>>>>>>>>>>>>>>>>>>>>>>>>>>>>>>>>>>>>>>>>>>k: 64
run 10000
Generated 0 of 0 mixed pair_coeff terms from geometric mixing rule
Step          Temp          E_pair         E_mol          PotEng         KinEng         TotEng         Press          Volume
2100000   0.96897291     0              32.924088      32.924088      1.4421042      34.366192     -1.4736895e-05  2097152
Loop time of 0.203743 on 4 procs for 10000 steps with 128 atoms

dump dum2 all custom 10000 dump_N128_k64.dynamics id type x y z
dump_modify dum2  sort id
run 250000
Generated 0 of 0 mixed pair_coeff terms from geometric mixing rule
Step          Temp          E_pair         E_mol          PotEng         KinEng         TotEng         Press          Volume
2110000   0.94806286     0              32.365702      32.365702      1.4109842      33.776686     -7.8358746e-05  2097152
Averages over the last 13 of 26 rows, steps 2240000 to 2360000:
Temp E_pair E_mol PotEng KinEng TotEng Press Volume
0.990344 0 31.9911 31.9911 1.47391 33.465 -2.13801e-05 2.09715e+06
Loop time of 5.43521 on 4 procs for 250000 steps with 128 atoms

write_restart 	restart._N128_k64.dat
System init for write_restart ...
Generated 0 of 0 mixed pair_coeff terms from geometric mixing rule
unfix mythermofile
unfix myRG2file
undump dum2
angle_coeff   1  128
print ">>>>>>>>>>>>>>>>>>>>>>>>>>>>>>>>>>>>>>>>>>>>>>>>>>>>k: 128 "
>>>>>>>>>>>>>>>>>>>>>>>>>>>>>>>>>>>>>>>>>>>>>>>>>>>>k: 128
run 10000
Generated 0 of 0 mixed pair_coeff terms from geometric mixing rule
Step          Temp          E_pair         E_mol          PotEng         KinEng         TotEng         Press          Volume
2360000   1.1655497      0              32.766621      32.766621      1.7346658      34.501287      0.00010739304  2097152
Loop time of 0.210394 on 4 procs for 10000 steps with 128 atoms

dump dum2 all custom 10000 dump_N128_k128.dynamics id type x y z
dump_modify dum2  sort id
run 250000
Generated 0 of 0 mixed pair_coeff terms from geometric mixing rule
Step          Temp          E_pair         E_mol          PotEng         KinEng         TotEng         Press          Volume
2370000   1.0109266      0              31.972246      31.972246      1.504543       33.476789      2.9625104e-05  2097152
Averages over the last 13 of 26 rows, steps 2500000 to 2620000:
Temp E_pair E_mol PotEng KinEng TotEng Press Volume
1.00403 0 32.0565 32.0565 1.49427 33.5508 -3.0636e-05 2.09715e+06
Loop time of 6.52896 on 4 procs for 250000 steps with 128 atoms

write_restart 	restart._N128_k128.dat
System init for write_restart ...
Generated 0 of 0 mixed pair_coeff terms from geometric mixing rule
unfix mythermofile
unfix myRG2file
undump dum2
