LAMMPS (23 Jun 2022 - Update 3)
###

#Sets up LAMMPS environment for python script to iterate over

###

###

#Box and units

###

units lj          #use dimensionless LJ units

atom_style angle  #atoms with bonds and Angles

boundary m m m    #periodic (we do not want our sphere to be messed around with)

###

# Pair interactions require lists of neighbours to be calculated

#TODO: Optimize these settings

###

neighbor 1.9 bin

neigh_modify every 1 delay 1 check yes

###

# READ configuration data file

###

read_data config.straight

Reading data file ...
  orthogonal box = (-32 -32 -32) to (32 32 32)
  reading atoms ...
  64 atoms
  scanning bonds ...
  scanning angles ...
  reading bonds ...
  63 bonds
  reading angles ...
  62 angles
Finding 1-2 1-3 1-4 neighbors ...
     2 = max # of 1-2 neighbors
     2 = max # of 1-3 neighbors
     4 = max # of 1-4 neighbors
     6 = max # of special neighbors

###

# Dump configurations of relaxation

###

dump dum1 all custom 10000 dump.relax id type x y z

dump_modify dum1  sort id

# every 1000 time steps, each atom's id, type, x,y,z coords and x,y,z are output.

###

# Set up interactions - start with 'soft' potentials

###

###

## angle potential: Using K=16 to prevent overlaps when we switch to the hard potentials

###

angle_style  cosine

angle_coeff   1  16.0

## Between bonded atoms

bond_style   harmonic

# For style harmonic, specify:

#   * bond type

#   * K (energy/distance^2)

#   * R0 (distance)

bond_coeff   1   90.0   1.1

## Between non-bonded atoms

pair_style     soft 1.12246152962189

#  pair_coeff for soft, specify 3:

#    * atom type interacting with

#    * atom type

#    * energy - 0 to allow overlapping pairs

#    * cutoff

pair_coeff 1 1  1.0 1.12246152962189

###

# Set up fixes and velocities

###

variable seed equal 315987     # a seed for the thermostat

velocity all zero linear   #0 velocity initially

#TODO: IS THIS AN APPROPRIATE INTEGRATOR?

fix 1 all nve                             # NVE integrator

fix 2 all langevin   1.0 1.0 1.0 315987

##### Output thermodynamic info  (temperature, energy, pressure, etc.) #####

thermo 10000

thermo_style   custom   step  temp  epair  emol pe ke etotal  press  vol

############################################################################

##### Output thermodynamic info to file  ###################################

variable t equal step

variable mytemp equal temp

variable myepair equal epair

#moved the above to the for loop, neglected to move the rest... since well

#then i'd have to botehr with redefining variables

############################################################################

############################################################################

#### Set up a compute for R_g

compute myRG2compute all gyration

#### and write it to a file

variable RG2 equal c_myRG2compute

#moved the above to the for loop in tha python script like the thermo too!

############################################################################

###

#Incremenet COMM cutoff since they get quite pesky about it and it leads to

#issues like atoms not communicating properly when stretched

###

comm_modify cutoff 3.55

###

# set timestep of integrator

###

timestep 0.01

###

# run integration for a number of steps to equilibrate with soft potnentials

###

run 10000

Generated 0 of 0 mixed pair_coeff terms from geometric mixing rule
  update every 1 steps, delay 1 steps, check yes
Step          Temp          E_pair         E_mol          PotEng         KinEng         TotEng         Press          Volume
0   0              0              1.9933594      1.9933594      0              1.9933594      0.0020547867   262144
Loop time of 0.123146 on 4 procs for 10000 steps with 64 atoms

###

# Now switch to LJ potential and FENE bonds

###

## Between bonded atoms

bond_style   fene

special_bonds fene #<=== I M P O R T A N T prevents LJ from being counted twice

Finding 1-2 1-3 1-4 neighbors ...
     2 = max # of 1-2 neighbors
     6 = max # of special neighbors
# For style FENE, specify:

#   * bond type

#   * K (energy/distance^2)

#   * R0 (distance)

#   * epsilon

#   * sigma

bond_coeff   1    50.0   1.6   1.0   1.0

## Between non-bonded atoms

pair_style      lj/cut 1.12246152962189

pair_modify shift yes        # option to ensure energy is calculated corectly

#  pair_coeff for LJ, specify 4:

#    * atom type interacting with

#    * atom type

#    * energy - again set to 0 to allow overlaps

#    * mean diameter of the two atom types

#    * cutoff

pair_coeff      1 1 1.0 1.0 1.12246152962189

#brief stint under new potentials to allow it to relax under them

run 10000

Generated 0 of 0 mixed pair_coeff terms from geometric mixing rule
  update every 1 steps, delay 1 steps, check yes
Step          Temp          E_pair         E_mol          PotEng         KinEng         TotEng         Press          Volume
10000   1.2669808      0              43.455264      43.455264      1.8707763      45.32604      -0.0092525408   262144
Loop time of 0.147538 on 4 procs for 10000 steps with 64 atoms

#disables relaxation dump

undump dum1

###

# now do a longer run with the FENE LJ potentials, relaxed in every possible way, expect to catch a lot of oscillation

# this also makes the dump we'll actually use for data analysis

###

angle_coeff   1  0.25
print ">>>>>>>>>>>>>>>>>>>>>>>>>>>>>>>>>>>>>>>>>>>>>>>>>>>>k: 0.25 "
>>>>>>>>>>>>>>>>>>>>>>>>>>>>>>>>>>>>>>>>>>>>>>>>>>>>k: 0.25
run 10000
Generated 0 of 0 mixed pair_coeff terms from geometric mixing rule
Step          Temp          E_pair         E_mol          PotEng         KinEng         TotEng         Press          Volume
20000   0.97195105     0              30.667238      30.667238      1.4351465      32.102384      2.7400557e-06  262144
Loop time of 0.147447 on 4 procs for 10000 steps with 64 atoms

dump dum2 all custom 10000 dump_N64_k0.25.dynamics id type x y z
dump_modify dum2  sort id
run 250000
Generated 0 of 0 mixed pair_coeff terms from geometric mixing rule
Step          Temp          E_pair         E_mol          PotEng         KinEng         TotEng         Press          Volume
30000   0.87556976     0.026299257    30.988434      31.014733      1.2928335      32.307567     -0.00016756438  262144
Averages over the last 13 of 26 rows, steps 160000 to 280000:
Temp E_pair E_mol PotEng KinEng TotEng Press Volume
1.01658 0.0278075 30.8837 30.9115 1.50105 32.4126 7.17301e-05 262144
Loop time of 4.22073 on 4 procs for 250000 steps with 64 atoms

write_restart 	restart._N64_k0.25.dat
System init for write_restart ...
Generated 0 of 0 mixed pair_coeff terms from geometric mixing rule
unfix mythermofile
unfix myRG2file
undump dum2
angle_coeff   1  0.5
print ">>>>>>>>>>>>>>>>>>>>>>>>>>>>>>>>>>>>>>>>>>>>>>>>>>>>k: 0.5 "
>>>>>>>>>>>>>>>>>>>>>>>>>>>>>>>>>>>>>>>>>>>>>>>>>>>>k: 0.5
run 10000
Generated 0 of 0 mixed pair_coeff terms from geometric mixing rule
Step          Temp          E_pair         E_mol          PotEng         KinEng         TotEng         Press          Volume
280000   1.0800338      0.00094501063  31.037443      31.038388      1.5947374      32.633126     -9.3332871e-05  262144
Loop time of 0.183443 on 4 procs for 10000 steps with 64 atoms

dump dum2 all custom 10000 dump_N64_k0.5.dynamics id type x y z
dump_modify dum2  sort id
run 250000
Generated 0 of 0 mixed pair_coeff terms from geometric mixing rule
Step          Temp          E_pair         E_mol          PotEng         KinEng         TotEng         Press          Volume
290000   1.2882098      0.017112061    30.986367      31.003479      1.9021223      32.905601      0.00011645488  262144
Averages over the last 13 of 26 rows, steps 420000 to 540000:
Temp E_pair E_mol PotEng KinEng TotEng Press Volume
1.00435 0.01188 31.01 31.0218 1.48299 32.5048 -3.7047e-05 262144
Loop time of 4.05484 on 4 procs for 250000 steps with 64 atoms

write_restart 	restart._N64_k0.5.dat
System init for write_restart ...
Generated 0 of 0 mixed pair_coeff terms from geometric mixing rule
unfix mythermofile
unfix myRG2file
undump dum2
angle_coeff   1  1
print ">>>>>>>>>>>>>>>>>>>>>>>>>>>>>>>>>>>>>>>>>>>>>>>>>>>>k: 1 "
>>>>>>>>>>>>>>>>>>>>>>>>>>>>>>>>>>>>>>>>>>>>>>>>>>>>k: 1
run 10000
Generated 0 of 0 mixed pair_coeff terms from geometric mixing rule
Step          Temp          E_pair         E_mol          PotEng         KinEng         TotEng         Press          Volume
540000   0.92228237     0.010301501    31.247968      31.258269      1.3618076      32.620077     -9.7816959e-06  262144
Loop time of 0.155189 on 4 procs for 10000 steps with 64 atoms

dump dum2 all custom 10000 dump_N64_k1.dynamics id type x y z
dump_modify dum2  sort id
run 250000
Generated 0 of 0 mixed pair_coeff terms from geometric mixing rule
Step          Temp          E_pair         E_mol          PotEng         KinEng         TotEng         Press          Volume
550000   0.93722532     0.010483363    31.485154      31.495637      1.3838718      32.879509      1.990842e-05   262144
Averages over the last 13 of 26 rows, steps 680000 to 800000:
Temp E_pair E_mol PotEng KinEng TotEng Press Volume
1.02256 0.0115887 31.3155 31.3271 1.50987 32.8369 0.000172499 262144
Loop time of 3.84093 on 4 procs for 250000 steps with 64 atoms

write_restart 	restart._N64_k1.dat
System init for write_restart ...
Generated 0 of 0 mixed pair_coeff terms from geometric mixing rule
unfix mythermofile
unfix myRG2file
undump dum2
angle_coeff   1  2
print ">>>>>>>>>>>>>>>>>>>>>>>>>>>>>>>>>>>>>>>>>>>>>>>>>>>>k: 2 "
>>>>>>>>>>>>>>>>>>>>>>>>>>>>>>>>>>>>>>>>>>>>>>>>>>>>k: 2
run 10000
Generated 0 of 0 mixed pair_coeff terms from geometric mixing rule
Step          Temp          E_pair         E_mol          PotEng         KinEng         TotEng         Press          Volume
800000   1.0821374      4.1707906e-05  31.754693      31.754735      1.5978435      33.352578      0.00097216239  262144
Loop time of 0.172713 on 4 procs for 10000 steps with 64 atoms

dump dum2 all custom 10000 dump_N64_k2.dynamics id type x y z
dump_modify dum2  sort id
run 250000
Generated 0 of 0 mixed pair_coeff terms from geometric mixing rule
Step          Temp          E_pair         E_mol          PotEng         KinEng         TotEng         Press          Volume
810000   1.3042328      0.0037074985   31.477066      31.480773      1.9257813      33.406554      0.00044298117  262144
Averages over the last 13 of 26 rows, steps 940000 to 1060000:
Temp E_pair E_mol PotEng KinEng TotEng Press Volume
1.00824 0.00435542 31.493 31.4973 1.48872 32.986 -4.32573e-05 262144
Loop time of 4.09551 on 4 procs for 250000 steps with 64 atoms

write_restart 	restart._N64_k2.dat
System init for write_restart ...
Generated 0 of 0 mixed pair_coeff terms from geometric mixing rule
unfix mythermofile
unfix myRG2file
undump dum2
angle_coeff   1  4
print ">>>>>>>>>>>>>>>>>>>>>>>>>>>>>>>>>>>>>>>>>>>>>>>>>>>>k: 4 "
>>>>>>>>>>>>>>>>>>>>>>>>>>>>>>>>>>>>>>>>>>>>>>>>>>>>k: 4
run 10000
Generated 0 of 0 mixed pair_coeff terms from geometric mixing rule
Step          Temp          E_pair         E_mol          PotEng         KinEng         TotEng         Press          Volume
1060000   0.85645648     0.0088984038   32.472516      32.481414      1.2646115      33.746026     -7.1196264e-05  262144
Loop time of 0.143542 on 4 procs for 10000 steps with 64 atoms

dump dum2 all custom 10000 dump_N64_k4.dynamics id type x y z
dump_modify dum2  sort id
run 250000
Generated 0 of 0 mixed pair_coeff terms from geometric mixing rule
Step          Temp          E_pair         E_mol          PotEng         KinEng         TotEng         Press          Volume
1070000   0.86869502     0              31.557139      31.557139      1.2826825      32.839822     -0.00015028399  262144
Averages over the last 13 of 26 rows, steps 1200000 to 1320000:
Temp E_pair E_mol PotEng KinEng TotEng Press Volume
0.999115 0.000673607 31.7345 31.7352 1.47526 33.2104 4.86832e-05 262144
Loop time of 3.96455 on 4 procs for 250000 steps with 64 atoms

write_restart 	restart._N64_k4.dat
System init for write_restart ...
Generated 0 of 0 mixed pair_coeff terms from geometric mixing rule
unfix mythermofile
unfix myRG2file
undump dum2
angle_coeff   1  8
print ">>>>>>>>>>>>>>>>>>>>>>>>>>>>>>>>>>>>>>>>>>>>>>>>>>>>k: 8 "
>>>>>>>>>>>>>>>>>>>>>>>>>>>>>>>>>>>>>>>>>>>>>>>>>>>>k: 8
run 10000
Generated 0 of 0 mixed pair_coeff terms from geometric mixing rule
Step          Temp          E_pair         E_mol          PotEng         KinEng         TotEng         Press          Volume
1320000   0.87395294     0              32.599687      32.599687      1.2904461      33.890133      0.00039799436  262144
Loop time of 0.161615 on 4 procs for 10000 steps with 64 atoms

dump dum2 all custom 10000 dump_N64_k8.dynamics id type x y z
dump_modify dum2  sort id
run 250000
Generated 0 of 0 mixed pair_coeff terms from geometric mixing rule
Step          Temp          E_pair         E_mol          PotEng         KinEng         TotEng         Press          Volume
1330000   1.0664336      0              31.624043      31.624043      1.5746559      33.198699     -9.4831575e-05  262144
Averages over the last 13 of 26 rows, steps 1460000 to 1580000:
Temp E_pair E_mol PotEng KinEng TotEng Press Volume
1.00834 0 31.783 31.783 1.48888 33.2719 -8.93798e-05 262595
Loop time of 3.87812 on 4 procs for 250000 steps with 64 atoms

write_restart 	restart._N64_k8.dat
System init for write_restart ...
Generated 0 of 0 mixed pair_coeff terms from geometric mixing rule
unfix mythermofile
unfix myRG2file
undump dum2
angle_coeff   1  16
print ">>>>>>>>>>>>>>>>>>>>>>>>>>>>>>>>>>>>>>>>>>>>>>>>>>>>k: 16 "
>>>>>>>>>>>>>>>>>>>>>>>>>>>>>>>>>>>>>>>>>>>>>>>>>>>>k: 16
run 10000
Generated 0 of 0 mixed pair_coeff terms from geometric mixing rule
Step          Temp          E_pair         E_mol          PotEng         KinEng         TotEng         Press          Volume
1580000   0.96302795     0              32.771851      32.771851      1.421971       34.193822     -0.00044394927  268846.79
Loop time of 0.163563 on 4 procs for 10000 steps with 64 atoms

dump dum2 all custom 10000 dump_N64_k16.dynamics id type x y z
dump_modify dum2  sort id
run 250000
Generated 0 of 0 mixed pair_coeff terms from geometric mixing rule
Step          Temp          E_pair         E_mol          PotEng         KinEng         TotEng         Press          Volume
1590000   1.0785585      0              31.784053      31.784053      1.5925591      33.376612     -0.00047102441  262144
Averages over the last 13 of 26 rows, steps 1720000 to 1840000:
Temp E_pair E_mol PotEng KinEng TotEng Press Volume
1.03153 0 31.6562 31.6562 1.52311 33.1793 2.29842e-05 278844
Loop time of 3.79509 on 4 procs for 250000 steps with 64 atoms

write_restart 	restart._N64_k16.dat
System init for write_restart ...
Generated 0 of 0 mixed pair_coeff terms from geometric mixing rule
unfix mythermofile
unfix myRG2file
undump dum2
angle_coeff   1  32
print ">>>>>>>>>>>>>>>>>>>>>>>>>>>>>>>>>>>>>>>>>>>>>>>>>>>>k: 32 "
>>>>>>>>>>>>>>>>>>>>>>>>>>>>>>>>>>>>>>>>>>>>>>>>>>>>k: 32
run 10000
Generated 0 of 0 mixed pair_coeff terms from geometric mixing rule
Step          Temp          E_pair         E_mol          PotEng         KinEng         TotEng         Press          Volume
1840000   1.0515347      0              32.286761      32.286761      1.5526568      33.839417      8.762514e-05   288029.11
Loop time of 0.136342 on 4 procs for 10000 steps with 64 atoms

dump dum2 all custom 10000 dump_N64_k32.dynamics id type x y z
dump_modify dum2  sort id
run 250000
Generated 0 of 0 mixed pair_coeff terms from geometric mixing rule
Step          Temp          E_pair         E_mol          PotEng         KinEng         TotEng         Press          Volume
1850000   1.1533615      0              31.625842      31.625842      1.7030104      33.328852     -0.00022619656  307112.88
Averages over the last 13 of 26 rows, steps 1980000 to 2100000:
Temp E_pair E_mol PotEng KinEng TotEng Press Volume
1.01881 0 31.7842 31.7842 1.50433 33.2886 6.3567e-05 338898
Loop time of 3.95539 on 4 procs for 250000 steps with 64 atoms

write_restart 	restart._N64_k32.dat
System init for write_restart ...
Generated 0 of 0 mixed pair_coeff terms from geometric mixing rule
unfix mythermofile
unfix myRG2file
undump dum2
angle_coeff   1  64
print ">>>>>>>>>>>>>>>>>>>>>>>>>>>>>>>>>>>>>>>>>>>>>>>>>>>>k: 64 "
>>>>>>>>>>>>>>>>>>>>>>>>>>>>>>>>>>>>>>>>>>>>>>>>>>>>k: 64
run 10000
Generated 0 of 0 mixed pair_coeff terms from geometric mixing rule
Step          Temp          E_pair         E_mol          PotEng         KinEng         TotEng         Press          Volume
2100000   0.88759071     0              32.885547      32.885547      1.3105832      34.19613       0.00045072824  320287.03
Loop time of 0.122792 on 4 procs for 10000 steps with 64 atoms

dump dum2 all custom 10000 dump_N64_k64.dynamics id type x y z
dump_modify dum2  sort id
run 250000
Generated 0 of 0 mixed pair_coeff terms from geometric mixing rule
Step          Temp          E_pair         E_mol          PotEng         KinEng         TotEng         Press          Volume
2110000   1.0634173      0              31.842183      31.842183      1.5702021      33.412385     -2.1631889e-05  333305.02
Averages over the last 13 of 26 rows, steps 2240000 to 2360000:
Temp E_pair E_mol PotEng KinEng TotEng Press Volume
1.01127 0 31.7895 31.7895 1.4932 33.2827 3.52526e-05 333256
Loop time of 4.70927 on 4 procs for 250000 steps with 64 atoms

write_restart 	restart._N64_k64.dat
System init for write_restart ...
Generated 0 of 0 mixed pair_coeff terms from geometric mixing rule
unfix mythermofile
unfix myRG2file
undump dum2
angle_coeff   1  128
print ">>>>>>>>>>>>>>>>>>>>>>>>>>>>>>>>>>>>>>>>>>>>>>>>>>>>k: 128 "
>>>>>>>>>>>>>>>>>>>>>>>>>>>>>>>>>>>>>>>>>>>>>>>>>>>>k: 128
run 10000
Generated 0 of 0 mixed pair_coeff terms from geometric mixing rule
Step          Temp          E_pair         E_mol          PotEng         KinEng         TotEng         Press          Volume
2360000   1.0027334      0              32.514598      32.514598      1.4805985      33.995197     -1.77779e-05    353814.01
Loop time of 0.223791 on 4 procs for 10000 steps with 64 atoms

dump dum2 all custom 10000 dump_N64_k128.dynamics id type x y z
dump_modify dum2  sort id
run 250000
Generated 0 of 0 mixed pair_coeff terms from geometric mixing rule
Step          Temp          E_pair         E_mol          PotEng         KinEng         TotEng         Press          Volume
2370000   0.931436       0              31.469379      31.469379      1.3753235      32.844702     -0.00020436068  325480.23
Averages over the last 13 of 26 rows, steps 2500000 to 2620000:
Temp E_pair E_mol PotEng KinEng TotEng Press Volume
0.972898 0 31.7302 31.7302 1.43654 33.1667 -8.90816e-05 270630
Loop time of 4.42599 on 4 procs for 250000 steps with 64 atoms

write_restart 	restart._N64_k128.dat
System init for write_restart ...
Generated 0 of 0 mixed pair_coeff terms from geometric mixing rule
unfix mythermofile
unfix myRG2file
undump dum2
