LAMMPS (23 Jun 2022 - Update 3)
###

#Sets up LAMMPS environment for python script to iterate over

###

###

#Box and units

###

units lj          #use dimensionless LJ units

atom_style angle  #atoms with bonds and Angles

boundary m m m    #periodic (we do not want our sphere to be messed around with)

###

# Pair interactions require lists of neighbours to be calculated

#TODO: Optimize these settings

###

neighbor 1.9 bin

neigh_modify every 1 delay 1 check yes

###

# READ configuration data file

###

read_data config.straight

Reading data file ...
  orthogonal box = (-128 -128 -128) to (128 128 128)
  reading atoms ...
  256 atoms
  scanning bonds ...
  scanning angles ...
  reading bonds ...
  255 bonds
  reading angles ...
  254 angles
Finding 1-2 1-3 1-4 neighbors ...
     2 = max # of 1-2 neighbors
     2 = max # of 1-3 neighbors
     4 = max # of 1-4 neighbors
     6 = max # of special neighbors

###

# Dump configurations of relaxation

###

dump dum1 all custom 10000 dump.relax id type x y z

dump_modify dum1  sort id

# every 1000 time steps, each atom's id, type, x,y,z coords and x,y,z are output.

###

# Set up interactions - start with 'soft' potentials

###

###

## angle potential: Using K=16 to prevent overlaps when we switch to the hard potentials

###

angle_style  cosine

angle_coeff   1  16.0

## Between bonded atoms

bond_style   harmonic

# For style harmonic, specify:

#   * bond type

#   * K (energy/distance^2)

#   * R0 (distance)

bond_coeff   1   90.0   1.1

## Between non-bonded atoms

pair_style     soft 1.12246152962189

#  pair_coeff for soft, specify 3:

#    * atom type interacting with

#    * atom type

#    * energy - 0 to allow overlapping pairs

#    * cutoff

pair_coeff 1 1  1.0 1.12246152962189

###

# Set up fixes and velocities

###

variable seed equal 315987     # a seed for the thermostat

velocity all zero linear   #0 velocity initially

#TODO: IS THIS AN APPROPRIATE INTEGRATOR?

fix 1 all nve                             # NVE integrator

fix 2 all langevin   1.0 1.0 1.0 315987

##### Output thermodynamic info  (temperature, energy, pressure, etc.) #####

thermo 10000

thermo_style   custom   step  temp  epair  emol pe ke etotal  press  vol

############################################################################

##### Output thermodynamic info to file  ###################################

variable t equal step

variable mytemp equal temp

variable myepair equal epair

#moved the above to the for loop, neglected to move the rest... since well

#then i'd have to botehr with redefining variables

############################################################################

############################################################################

#### Set up a compute for R_g

compute myRG2compute all gyration

#### and write it to a file

variable RG2 equal c_myRG2compute

#moved the above to the for loop in tha python script like the thermo too!

############################################################################

###

#Incremenet COMM cutoff since they get quite pesky about it and it leads to

#issues like atoms not communicating properly when stretched

###

comm_modify cutoff 3.55

###

# set timestep of integrator

###

timestep 0.01

###

# run integration for a number of steps to equilibrate with soft potnentials

###

run 10000

Generated 0 of 0 mixed pair_coeff terms from geometric mixing rule
  update every 1 steps, delay 1 steps, check yes
Step          Temp          E_pair         E_mol          PotEng         KinEng         TotEng         Press          Volume
0   0              0              2.0170898      2.0170898      0              2.0170898      0.00012995303  16777216
Loop time of 0.803536 on 4 procs for 10000 steps with 256 atoms

###

# Now switch to LJ potential and FENE bonds

###

## Between bonded atoms

bond_style   fene

special_bonds fene #<=== I M P O R T A N T prevents LJ from being counted twice

Finding 1-2 1-3 1-4 neighbors ...
     2 = max # of 1-2 neighbors
     6 = max # of special neighbors
# For style FENE, specify:

#   * bond type

#   * K (energy/distance^2)

#   * R0 (distance)

#   * epsilon

#   * sigma

bond_coeff   1    50.0   1.6   1.0   1.0

## Between non-bonded atoms

pair_style      lj/cut 1.12246152962189

pair_modify shift yes        # option to ensure energy is calculated corectly

#  pair_coeff for LJ, specify 4:

#    * atom type interacting with

#    * atom type

#    * energy - again set to 0 to allow overlaps

#    * mean diameter of the two atom types

#    * cutoff

pair_coeff      1 1 1.0 1.0 1.12246152962189

#brief stint under new potentials to allow it to relax under them

run 10000

Generated 0 of 0 mixed pair_coeff terms from geometric mixing rule
  update every 1 steps, delay 1 steps, check yes
Step          Temp          E_pair         E_mol          PotEng         KinEng         TotEng         Press          Volume
10000   0.85196118     0              44.440238      44.440238      1.2729498      45.713188     -0.00059963204  16777216
Loop time of 0.765816 on 4 procs for 10000 steps with 256 atoms

#disables relaxation dump

undump dum1

###

# now do a longer run with the FENE LJ potentials, relaxed in every possible way, expect to catch a lot of oscillation

# this also makes the dump we'll actually use for data analysis

###

angle_coeff   1  0.25
print ">>>>>>>>>>>>>>>>>>>>>>>>>>>>>>>>>>>>>>>>>>>>>>>>>>>>k: 0.25 "
>>>>>>>>>>>>>>>>>>>>>>>>>>>>>>>>>>>>>>>>>>>>>>>>>>>>k: 0.25
run 10000
Generated 0 of 0 mixed pair_coeff terms from geometric mixing rule
Step          Temp          E_pair         E_mol          PotEng         KinEng         TotEng         Press          Volume
20000   0.91347463     0              31.139538      31.139538      1.3648596      32.504398     -1.9547513e-05  16777216
Loop time of 0.928345 on 4 procs for 10000 steps with 256 atoms

dump dum2 all custom 10000 dump_N256_k0.25.dynamics id type x y z
dump_modify dum2  sort id
run 250000
Generated 0 of 0 mixed pair_coeff terms from geometric mixing rule
Step          Temp          E_pair         E_mol          PotEng         KinEng         TotEng         Press          Volume
30000   1.0479966      0.0054182016   31.239037      31.244456      1.5658543      32.81031      -1.4125694e-05  16777216
Averages over the last 13 of 26 rows, steps 160000 to 280000:
Temp E_pair E_mol PotEng KinEng TotEng Press Volume
1.00396 0.016419 31.276 31.2924 1.50006 32.7925 -4.70293e-06 1.67772e+07
Loop time of 24.9775 on 4 procs for 250000 steps with 256 atoms

write_restart 	restart._N256_k0.25.dat
System init for write_restart ...
Generated 0 of 0 mixed pair_coeff terms from geometric mixing rule
unfix mythermofile
unfix myRG2file
undump dum2
angle_coeff   1  0.5
print ">>>>>>>>>>>>>>>>>>>>>>>>>>>>>>>>>>>>>>>>>>>>>>>>>>>>k: 0.5 "
>>>>>>>>>>>>>>>>>>>>>>>>>>>>>>>>>>>>>>>>>>>>>>>>>>>>k: 0.5
run 10000
Generated 0 of 0 mixed pair_coeff terms from geometric mixing rule
Step          Temp          E_pair         E_mol          PotEng         KinEng         TotEng         Press          Volume
280000   0.96923097     0.018998281    31.436217      31.455215      1.4481674      32.903383      8.6168744e-06  16777216
Loop time of 0.887973 on 4 procs for 10000 steps with 256 atoms

dump dum2 all custom 10000 dump_N256_k0.5.dynamics id type x y z
dump_modify dum2  sort id
run 250000
Generated 0 of 0 mixed pair_coeff terms from geometric mixing rule
Step          Temp          E_pair         E_mol          PotEng         KinEng         TotEng         Press          Volume
290000   0.98569392     0.00832337     31.422379      31.430703      1.4727653      32.903468      1.5190061e-05  16777216
Averages over the last 13 of 26 rows, steps 420000 to 540000:
Temp E_pair E_mol PotEng KinEng TotEng Press Volume
1.0178 0.0176484 31.4148 31.4324 1.52074 32.9532 -3.05089e-08 1.67772e+07
Loop time of 24.3678 on 4 procs for 250000 steps with 256 atoms

write_restart 	restart._N256_k0.5.dat
System init for write_restart ...
Generated 0 of 0 mixed pair_coeff terms from geometric mixing rule
unfix mythermofile
unfix myRG2file
undump dum2
angle_coeff   1  1
print ">>>>>>>>>>>>>>>>>>>>>>>>>>>>>>>>>>>>>>>>>>>>>>>>>>>>k: 1 "
>>>>>>>>>>>>>>>>>>>>>>>>>>>>>>>>>>>>>>>>>>>>>>>>>>>>k: 1
run 10000
Generated 0 of 0 mixed pair_coeff terms from geometric mixing rule
Step          Temp          E_pair         E_mol          PotEng         KinEng         TotEng         Press          Volume
540000   0.98961356     0.020633165    31.700663      31.721296      1.4786218      33.199918     -1.4775992e-05  16777216
Loop time of 0.970412 on 4 procs for 10000 steps with 256 atoms

dump dum2 all custom 10000 dump_N256_k1.dynamics id type x y z
dump_modify dum2  sort id
run 250000
Generated 0 of 0 mixed pair_coeff terms from geometric mixing rule
Step          Temp          E_pair         E_mol          PotEng         KinEng         TotEng         Press          Volume
550000   0.99533198     0.0086878938   31.578065      31.586753      1.4871659      33.073918      5.9810649e-08  16777216
Averages over the last 13 of 26 rows, steps 680000 to 800000:
Temp E_pair E_mol PotEng KinEng TotEng Press Volume
0.998335 0.00806484 31.6332 31.6413 1.49165 33.1329 -9.05332e-07 1.67772e+07
Loop time of 24.2627 on 4 procs for 250000 steps with 256 atoms

write_restart 	restart._N256_k1.dat
System init for write_restart ...
Generated 0 of 0 mixed pair_coeff terms from geometric mixing rule
unfix mythermofile
unfix myRG2file
undump dum2
angle_coeff   1  2
print ">>>>>>>>>>>>>>>>>>>>>>>>>>>>>>>>>>>>>>>>>>>>>>>>>>>>k: 2 "
>>>>>>>>>>>>>>>>>>>>>>>>>>>>>>>>>>>>>>>>>>>>>>>>>>>>k: 2
run 10000
Generated 0 of 0 mixed pair_coeff terms from geometric mixing rule
Step          Temp          E_pair         E_mol          PotEng         KinEng         TotEng         Press          Volume
800000   1.0346442      0.0024348757   32.052173      32.054608      1.5459039      33.600512      1.9265786e-05  16777216
Loop time of 0.951633 on 4 procs for 10000 steps with 256 atoms

dump dum2 all custom 10000 dump_N256_k2.dynamics id type x y z
dump_modify dum2  sort id
run 250000
Generated 0 of 0 mixed pair_coeff terms from geometric mixing rule
Step          Temp          E_pair         E_mol          PotEng         KinEng         TotEng         Press          Volume
810000   0.98743238     0.0016656495   31.845562      31.847228      1.4753628      33.322591     -9.4044232e-06  16777216
Averages over the last 13 of 26 rows, steps 940000 to 1060000:
Temp E_pair E_mol PotEng KinEng TotEng Press Volume
1.01101 0.00615364 31.8921 31.8982 1.51059 33.4088 -1.49539e-06 1.67772e+07
Loop time of 22.9241 on 4 procs for 250000 steps with 256 atoms

write_restart 	restart._N256_k2.dat
System init for write_restart ...
Generated 0 of 0 mixed pair_coeff terms from geometric mixing rule
unfix mythermofile
unfix myRG2file
undump dum2
angle_coeff   1  4
print ">>>>>>>>>>>>>>>>>>>>>>>>>>>>>>>>>>>>>>>>>>>>>>>>>>>>k: 4 "
>>>>>>>>>>>>>>>>>>>>>>>>>>>>>>>>>>>>>>>>>>>>>>>>>>>>k: 4
run 10000
Generated 0 of 0 mixed pair_coeff terms from geometric mixing rule
Step          Temp          E_pair         E_mol          PotEng         KinEng         TotEng         Press          Volume
1060000   1.0726343      0.0025737105   32.725272      32.727846      1.6026665      34.330512     -1.4759748e-06  16777216
Loop time of 0.871283 on 4 procs for 10000 steps with 256 atoms

dump dum2 all custom 10000 dump_N256_k4.dynamics id type x y z
dump_modify dum2  sort id
run 250000
Generated 0 of 0 mixed pair_coeff terms from geometric mixing rule
Step          Temp          E_pair         E_mol          PotEng         KinEng         TotEng         Press          Volume
1070000   1.0527176      0.00034692907  32.184778      32.185125      1.5729081      33.758033     -3.8914666e-06  16777216
Averages over the last 13 of 26 rows, steps 1200000 to 1320000:
Temp E_pair E_mol PotEng KinEng TotEng Press Volume
0.996297 0.00025053 32.0988 32.0991 1.48861 33.5877 4.13791e-06 1.67772e+07
Loop time of 21.375 on 4 procs for 250000 steps with 256 atoms

write_restart 	restart._N256_k4.dat
System init for write_restart ...
Generated 0 of 0 mixed pair_coeff terms from geometric mixing rule
unfix mythermofile
unfix myRG2file
undump dum2
angle_coeff   1  8
print ">>>>>>>>>>>>>>>>>>>>>>>>>>>>>>>>>>>>>>>>>>>>>>>>>>>>k: 8 "
>>>>>>>>>>>>>>>>>>>>>>>>>>>>>>>>>>>>>>>>>>>>>>>>>>>>k: 8
run 10000
Generated 0 of 0 mixed pair_coeff terms from geometric mixing rule
Step          Temp          E_pair         E_mol          PotEng         KinEng         TotEng         Press          Volume
1320000   1.0231922      0.0013855642   33.203143      33.204529      1.528793       34.733322      7.587026e-06   16777216
Loop time of 0.793433 on 4 procs for 10000 steps with 256 atoms

dump dum2 all custom 10000 dump_N256_k8.dynamics id type x y z
dump_modify dum2  sort id
run 250000
Generated 0 of 0 mixed pair_coeff terms from geometric mixing rule
Step          Temp          E_pair         E_mol          PotEng         KinEng         TotEng         Press          Volume
1330000   0.98097116     0              32.161219      32.161219      1.4657089      33.626928     -1.7923147e-05  16777216
Averages over the last 13 of 26 rows, steps 1460000 to 1580000:
Temp E_pair E_mol PotEng KinEng TotEng Press Volume
1.01652 7.82191e-07 32.0916 32.0916 1.51883 33.6104 2.02129e-07 1.67772e+07
Loop time of 19.1319 on 4 procs for 250000 steps with 256 atoms

write_restart 	restart._N256_k8.dat
System init for write_restart ...
Generated 0 of 0 mixed pair_coeff terms from geometric mixing rule
unfix mythermofile
unfix myRG2file
undump dum2
angle_coeff   1  16
print ">>>>>>>>>>>>>>>>>>>>>>>>>>>>>>>>>>>>>>>>>>>>>>>>>>>>k: 16 "
>>>>>>>>>>>>>>>>>>>>>>>>>>>>>>>>>>>>>>>>>>>>>>>>>>>>k: 16
run 10000
Generated 0 of 0 mixed pair_coeff terms from geometric mixing rule
Step          Temp          E_pair         E_mol          PotEng         KinEng         TotEng         Press          Volume
1580000   1.0090445      0              32.939179      32.939179      1.5076543      34.446833     -1.247798e-05   16777216
Loop time of 0.687714 on 4 procs for 10000 steps with 256 atoms

dump dum2 all custom 10000 dump_N256_k16.dynamics id type x y z
dump_modify dum2  sort id
run 250000
Generated 0 of 0 mixed pair_coeff terms from geometric mixing rule
Step          Temp          E_pair         E_mol          PotEng         KinEng         TotEng         Press          Volume
1590000   1.0992642      0              32.133022      32.133022      1.6424553      33.775477     -3.6104601e-09  16777216
Averages over the last 13 of 26 rows, steps 1720000 to 1840000:
Temp E_pair E_mol PotEng KinEng TotEng Press Volume
1.04094 0 32.1668 32.1668 1.55532 33.7221 -1.62507e-06 1.67772e+07
Loop time of 17.6315 on 4 procs for 250000 steps with 256 atoms

write_restart 	restart._N256_k16.dat
System init for write_restart ...
Generated 0 of 0 mixed pair_coeff terms from geometric mixing rule
unfix mythermofile
unfix myRG2file
undump dum2
angle_coeff   1  32
print ">>>>>>>>>>>>>>>>>>>>>>>>>>>>>>>>>>>>>>>>>>>>>>>>>>>>k: 32 "
>>>>>>>>>>>>>>>>>>>>>>>>>>>>>>>>>>>>>>>>>>>>>>>>>>>>k: 32
run 10000
Generated 0 of 0 mixed pair_coeff terms from geometric mixing rule
Step          Temp          E_pair         E_mol          PotEng         KinEng         TotEng         Press          Volume
1840000   1.1057568      0              33.379849      33.379849      1.6521562      35.032005      8.9280557e-06  16777216
Loop time of 0.644958 on 4 procs for 10000 steps with 256 atoms

dump dum2 all custom 10000 dump_N256_k32.dynamics id type x y z
dump_modify dum2  sort id
run 250000
Generated 0 of 0 mixed pair_coeff terms from geometric mixing rule
Step          Temp          E_pair         E_mol          PotEng         KinEng         TotEng         Press          Volume
1850000   1.0016108      0.00017096531  32.286204      32.286375      1.4965473      33.782923     -1.1661399e-06  16777216
Averages over the last 13 of 26 rows, steps 1980000 to 2100000:
Temp E_pair E_mol PotEng KinEng TotEng Press Volume
0.99575 0 32.1457 32.1457 1.48779 33.6335 -6.93312e-07 1.67772e+07
Loop time of 16.5293 on 4 procs for 250000 steps with 256 atoms

write_restart 	restart._N256_k32.dat
System init for write_restart ...
Generated 0 of 0 mixed pair_coeff terms from geometric mixing rule
unfix mythermofile
unfix myRG2file
undump dum2
angle_coeff   1  64
print ">>>>>>>>>>>>>>>>>>>>>>>>>>>>>>>>>>>>>>>>>>>>>>>>>>>>k: 64 "
>>>>>>>>>>>>>>>>>>>>>>>>>>>>>>>>>>>>>>>>>>>>>>>>>>>>k: 64
run 10000
Generated 0 of 0 mixed pair_coeff terms from geometric mixing rule
Step          Temp          E_pair         E_mol          PotEng         KinEng         TotEng         Press          Volume
2100000   0.99871133     0              33.223717      33.223717      1.4922152      34.715932      5.8483774e-06  16777216
Loop time of 0.610732 on 4 procs for 10000 steps with 256 atoms

dump dum2 all custom 10000 dump_N256_k64.dynamics id type x y z
dump_modify dum2  sort id
run 250000
Generated 0 of 0 mixed pair_coeff terms from geometric mixing rule
Step          Temp          E_pair         E_mol          PotEng         KinEng         TotEng         Press          Volume
2110000   0.97548089     0              32.234242      32.234242      1.4575056      33.691747      7.5289754e-06  16777216
Averages over the last 13 of 26 rows, steps 2240000 to 2360000:
Temp E_pair E_mol PotEng KinEng TotEng Press Volume
1.00254 0 32.219 32.219 1.49794 33.7169 3.1142e-06 1.67772e+07
Loop time of 15.7597 on 4 procs for 250000 steps with 256 atoms

write_restart 	restart._N256_k64.dat
System init for write_restart ...
Generated 0 of 0 mixed pair_coeff terms from geometric mixing rule
unfix mythermofile
unfix myRG2file
undump dum2
angle_coeff   1  128
print ">>>>>>>>>>>>>>>>>>>>>>>>>>>>>>>>>>>>>>>>>>>>>>>>>>>>k: 128 "
>>>>>>>>>>>>>>>>>>>>>>>>>>>>>>>>>>>>>>>>>>>>>>>>>>>>k: 128
run 10000
Generated 0 of 0 mixed pair_coeff terms from geometric mixing rule
Step          Temp          E_pair         E_mol          PotEng         KinEng         TotEng         Press          Volume
2360000   1.0876425      0              33.421978      33.421978      1.6250908      35.047069     -2.4984625e-07  16777216
Loop time of 0.574359 on 4 procs for 10000 steps with 256 atoms

dump dum2 all custom 10000 dump_N256_k128.dynamics id type x y z
dump_modify dum2  sort id
run 250000
Generated 0 of 0 mixed pair_coeff terms from geometric mixing rule
Step          Temp          E_pair         E_mol          PotEng         KinEng         TotEng         Press          Volume
2370000   0.95552963     0              32.158665      32.158665      1.4276956      33.586361      1.7389139e-05  16777216
Averages over the last 13 of 26 rows, steps 2500000 to 2620000:
Temp E_pair E_mol PotEng KinEng TotEng Press Volume
0.974473 0 32.248 32.248 1.456 33.704 -3.48736e-06 1.67772e+07
Loop time of 14.2139 on 4 procs for 250000 steps with 256 atoms

write_restart 	restart._N256_k128.dat
System init for write_restart ...
Generated 0 of 0 mixed pair_coeff terms from geometric mixing rule
unfix mythermofile
unfix myRG2file
undump dum2
