LAMMPS (23 Jun 2022 - Update 3)
###

#Sets up LAMMPS environment for python script to iterate over

###

###

#Box and units

###

units lj          #use dimensionless LJ units

atom_style angle  #atoms with bonds and Angles

boundary m m m    #periodic (we do not want our sphere to be messed around with)

###

# Pair interactions require lists of neighbours to be calculated

#TODO: Optimize these settings

###

neighbor 1.9 bin

neigh_modify every 1 delay 1 check yes

###

# READ configuration data file

###

read_data config.straight

Reading data file ...
  orthogonal box = (-16 -16 -16) to (16 16 16)
  reading atoms ...
  32 atoms
  scanning bonds ...
  scanning angles ...
  reading bonds ...
  31 bonds
  reading angles ...
  30 angles
Finding 1-2 1-3 1-4 neighbors ...
     2 = max # of 1-2 neighbors
     2 = max # of 1-3 neighbors
     4 = max # of 1-4 neighbors
     6 = max # of special neighbors

###

# Dump configurations of relaxation

###

dump dum1 all custom 10000 dump.relax id type x y z

dump_modify dum1  sort id

# every 1000 time steps, each atom's id, type, x,y,z coords and x,y,z are output.

###

# Set up interactions - start with 'soft' potentials

###

###

## angle potential: Using K=16 to prevent overlaps when we switch to the hard potentials

###

angle_style  cosine

angle_coeff   1  16.0

## Between bonded atoms

bond_style   harmonic

# For style harmonic, specify:

#   * bond type

#   * K (energy/distance^2)

#   * R0 (distance)

bond_coeff   1   90.0   1.1

## Between non-bonded atoms

pair_style     soft 1.12246152962189

#  pair_coeff for soft, specify 3:

#    * atom type interacting with

#    * atom type

#    * energy - 0 to allow overlapping pairs

#    * cutoff

pair_coeff 1 1  1.0 1.12246152962189

###

# Set up fixes and velocities

###

variable seed equal 315987     # a seed for the thermostat

velocity all zero linear   #0 velocity initially

#TODO: IS THIS AN APPROPRIATE INTEGRATOR?

fix 1 all nve                             # NVE integrator

fix 2 all langevin   1.0 1.0 1.0 315987

##### Output thermodynamic info  (temperature, energy, pressure, etc.) #####

thermo 10000

thermo_style   custom   step  temp  epair  emol pe ke etotal  press  vol

############################################################################

##### Output thermodynamic info to file  ###################################

variable t equal step

variable mytemp equal temp

variable myepair equal epair

#moved the above to the for loop, neglected to move the rest... since well

#then i'd have to botehr with redefining variables

############################################################################

############################################################################

#### Set up a compute for R_g

compute myRG2compute all gyration

#### and write it to a file

variable RG2 equal c_myRG2compute

#moved the above to the for loop in tha python script like the thermo too!

############################################################################

###

#Incremenet COMM cutoff since they get quite pesky about it and it leads to

#issues like atoms not communicating properly when stretched

###

comm_modify cutoff 3.55

###

# set timestep of integrator

###

timestep 0.01

###

# run integration for a number of steps to equilibrate with soft potnentials

###

run 10000

Generated 0 of 0 mixed pair_coeff terms from geometric mixing rule
  update every 1 steps, delay 1 steps, check yes
Step          Temp          E_pair         E_mol          PotEng         KinEng         TotEng         Press          Volume
0   0              0              1.9617188      1.9617188      0              1.9617188      0.0080886841   32768
Loop time of 0.080628 on 4 procs for 10000 steps with 32 atoms

###

# Now switch to LJ potential and FENE bonds

###

## Between bonded atoms

bond_style   fene

special_bonds fene #<=== I M P O R T A N T prevents LJ from being counted twice

Finding 1-2 1-3 1-4 neighbors ...
     2 = max # of 1-2 neighbors
     6 = max # of special neighbors
# For style FENE, specify:

#   * bond type

#   * K (energy/distance^2)

#   * R0 (distance)

#   * epsilon

#   * sigma

bond_coeff   1    50.0   1.6   1.0   1.0

## Between non-bonded atoms

pair_style      lj/cut 1.12246152962189

pair_modify shift yes        # option to ensure energy is calculated corectly

#  pair_coeff for LJ, specify 4:

#    * atom type interacting with

#    * atom type

#    * energy - again set to 0 to allow overlaps

#    * mean diameter of the two atom types

#    * cutoff

pair_coeff      1 1 1.0 1.0 1.12246152962189

#brief stint under new potentials to allow it to relax under them

run 10000

Generated 0 of 0 mixed pair_coeff terms from geometric mixing rule
  update every 1 steps, delay 1 steps, check yes
Step          Temp          E_pair         E_mol          PotEng         KinEng         TotEng         Press          Volume
10000   0.84120343     0              41.092515      41.092515      1.2223737      42.314889     -0.034180468    32768
Loop time of 0.0811484 on 4 procs for 10000 steps with 32 atoms

#disables relaxation dump

undump dum1

###

# now do a longer run with the FENE LJ potentials, relaxed in every possible way, expect to catch a lot of oscillation

# this also makes the dump we'll actually use for data analysis

###

angle_coeff   1  0.25
print ">>>>>>>>>>>>>>>>>>>>>>>>>>>>>>>>>>>>>>>>>>>>>>>>>>>>k: 0.25 "
>>>>>>>>>>>>>>>>>>>>>>>>>>>>>>>>>>>>>>>>>>>>>>>>>>>>k: 0.25
run 10000
Generated 0 of 0 mixed pair_coeff terms from geometric mixing rule
Step          Temp          E_pair         E_mol          PotEng         KinEng         TotEng         Press          Volume
20000   1.1423801      0              30.270221      30.270221      1.660021       31.930242      0.0041631115   33160.231
Loop time of 0.0877531 on 4 procs for 10000 steps with 32 atoms

dump dum2 all custom 10000 dump_N32_k0.25.dynamics id type x y z
dump_modify dum2  sort id
run 250000
Generated 0 of 0 mixed pair_coeff terms from geometric mixing rule
Step          Temp          E_pair         E_mol          PotEng         KinEng         TotEng         Press          Volume
30000   0.92441092     1.3765216e-05  30.455198      30.455212      1.3432846      31.798496      0.00076158157  32768
Averages over the last 13 of 26 rows, steps 160000 to 280000:
Temp E_pair E_mol PotEng KinEng TotEng Press Volume
1.03788 0.0329346 30.4729 30.5058 1.50817 32.014 -0.000196045 38470.1
Loop time of 1.83253 on 4 procs for 250000 steps with 32 atoms

write_restart 	restart._N32_k0.25.dat
System init for write_restart ...
Generated 0 of 0 mixed pair_coeff terms from geometric mixing rule
unfix mythermofile
unfix myRG2file
undump dum2
angle_coeff   1  0.5
print ">>>>>>>>>>>>>>>>>>>>>>>>>>>>>>>>>>>>>>>>>>>>>>>>>>>>k: 0.5 "
>>>>>>>>>>>>>>>>>>>>>>>>>>>>>>>>>>>>>>>>>>>>>>>>>>>>k: 0.5
run 10000
Generated 0 of 0 mixed pair_coeff terms from geometric mixing rule
Step          Temp          E_pair         E_mol          PotEng         KinEng         TotEng         Press          Volume
280000   1.3958379      0.021676826    30.729485      30.751162      2.0283269      32.779489      0.0012974139   35569.903
Loop time of 0.0709 on 4 procs for 10000 steps with 32 atoms

dump dum2 all custom 10000 dump_N32_k0.5.dynamics id type x y z
dump_modify dum2  sort id
run 250000
Generated 0 of 0 mixed pair_coeff terms from geometric mixing rule
Step          Temp          E_pair         E_mol          PotEng         KinEng         TotEng         Press          Volume
290000   0.84204689     0.01340422     30.50365       30.517054      1.2235994      31.740654      0.00054689463  37145.7
Averages over the last 13 of 26 rows, steps 420000 to 540000:
Temp E_pair E_mol PotEng KinEng TotEng Press Volume
1.03988 0.00677299 30.5549 30.5617 1.51107 32.0728 0.000228355 43198
Loop time of 1.69915 on 4 procs for 250000 steps with 32 atoms

write_restart 	restart._N32_k0.5.dat
System init for write_restart ...
Generated 0 of 0 mixed pair_coeff terms from geometric mixing rule
unfix mythermofile
unfix myRG2file
undump dum2
angle_coeff   1  1
print ">>>>>>>>>>>>>>>>>>>>>>>>>>>>>>>>>>>>>>>>>>>>>>>>>>>>k: 1 "
>>>>>>>>>>>>>>>>>>>>>>>>>>>>>>>>>>>>>>>>>>>>>>>>>>>>k: 1
run 10000
Generated 0 of 0 mixed pair_coeff terms from geometric mixing rule
Step          Temp          E_pair         E_mol          PotEng         KinEng         TotEng         Press          Volume
540000   1.0609992      0.0052676075   30.956346      30.961614      1.5417645      32.503379      0.0011760053   39356.975
Loop time of 0.0690016 on 4 procs for 10000 steps with 32 atoms

dump dum2 all custom 10000 dump_N32_k1.dynamics id type x y z
dump_modify dum2  sort id
run 250000
Generated 0 of 0 mixed pair_coeff terms from geometric mixing rule
Step          Temp          E_pair         E_mol          PotEng         KinEng         TotEng         Press          Volume
550000   0.90985999     0.042776038    30.956918      30.999694      1.3221403      32.321834     -0.0003124445   48898.111
Averages over the last 13 of 26 rows, steps 680000 to 800000:
Temp E_pair E_mol PotEng KinEng TotEng Press Volume
0.973175 0.00755843 30.7807 30.7883 1.41415 32.2024 -4.03936e-05 56583.7
Loop time of 1.82002 on 4 procs for 250000 steps with 32 atoms

write_restart 	restart._N32_k1.dat
System init for write_restart ...
Generated 0 of 0 mixed pair_coeff terms from geometric mixing rule
unfix mythermofile
unfix myRG2file
undump dum2
angle_coeff   1  2
print ">>>>>>>>>>>>>>>>>>>>>>>>>>>>>>>>>>>>>>>>>>>>>>>>>>>>k: 2 "
>>>>>>>>>>>>>>>>>>>>>>>>>>>>>>>>>>>>>>>>>>>>>>>>>>>>k: 2
run 10000
Generated 0 of 0 mixed pair_coeff terms from geometric mixing rule
Step          Temp          E_pair         E_mol          PotEng         KinEng         TotEng         Press          Volume
800000   0.92728063     0.0028428017   31.530947      31.53379       1.3474547      32.881244      0.0016664075   58696.144
Loop time of 0.074494 on 4 procs for 10000 steps with 32 atoms

dump dum2 all custom 10000 dump_N32_k2.dynamics id type x y z
dump_modify dum2  sort id
run 250000
Generated 0 of 0 mixed pair_coeff terms from geometric mixing rule
Step          Temp          E_pair         E_mol          PotEng         KinEng         TotEng         Press          Volume
810000   1.3027802      0.023386245    30.973107      30.996493      1.8931025      32.889596      0.0010865815   60958.107
Averages over the last 13 of 26 rows, steps 940000 to 1060000:
Temp E_pair E_mol PotEng KinEng TotEng Press Volume
1.06206 0.00260644 30.9906 30.9933 1.5433 32.5366 -0.000488059 66383.7
Loop time of 1.88205 on 4 procs for 250000 steps with 32 atoms

write_restart 	restart._N32_k2.dat
System init for write_restart ...
Generated 0 of 0 mixed pair_coeff terms from geometric mixing rule
unfix mythermofile
unfix myRG2file
undump dum2
angle_coeff   1  4
print ">>>>>>>>>>>>>>>>>>>>>>>>>>>>>>>>>>>>>>>>>>>>>>>>>>>>k: 4 "
>>>>>>>>>>>>>>>>>>>>>>>>>>>>>>>>>>>>>>>>>>>>>>>>>>>>k: 4
run 10000
Generated 0 of 0 mixed pair_coeff terms from geometric mixing rule
Step          Temp          E_pair         E_mol          PotEng         KinEng         TotEng         Press          Volume
1060000   1.0000248      0              31.937334      31.937334      1.453161       33.390495     -0.0013122611   64869.124
Loop time of 0.0691746 on 4 procs for 10000 steps with 32 atoms

dump dum2 all custom 10000 dump_N32_k4.dynamics id type x y z
dump_modify dum2  sort id
run 250000
Generated 0 of 0 mixed pair_coeff terms from geometric mixing rule
Step          Temp          E_pair         E_mol          PotEng         KinEng         TotEng         Press          Volume
1070000   1.3014804      0              31.293767      31.293767      1.8912137      33.184981      0.00051753573  79679.213
Averages over the last 13 of 26 rows, steps 1200000 to 1320000:
Temp E_pair E_mol PotEng KinEng TotEng Press Volume
1.05761 0.0030651 31.1299 31.133 1.53684 32.6698 -3.35103e-05 66845.6
Loop time of 1.74149 on 4 procs for 250000 steps with 32 atoms

write_restart 	restart._N32_k4.dat
System init for write_restart ...
Generated 0 of 0 mixed pair_coeff terms from geometric mixing rule
unfix mythermofile
unfix myRG2file
undump dum2
angle_coeff   1  8
print ">>>>>>>>>>>>>>>>>>>>>>>>>>>>>>>>>>>>>>>>>>>>>>>>>>>>k: 8 "
>>>>>>>>>>>>>>>>>>>>>>>>>>>>>>>>>>>>>>>>>>>>>>>>>>>>k: 8
run 10000
Generated 0 of 0 mixed pair_coeff terms from geometric mixing rule
Step          Temp          E_pair         E_mol          PotEng         KinEng         TotEng         Press          Volume
1320000   0.75257397     0              31.607255      31.607255      1.093584       32.700839      0.00030328059  59025.465
Loop time of 0.0680038 on 4 procs for 10000 steps with 32 atoms

dump dum2 all custom 10000 dump_N32_k8.dynamics id type x y z
dump_modify dum2  sort id
run 250000
Generated 0 of 0 mixed pair_coeff terms from geometric mixing rule
Step          Temp          E_pair         E_mol          PotEng         KinEng         TotEng         Press          Volume
1330000   1.1448971      0              31.133231      31.133231      1.6636785      32.79691       0.0014455263   56577.38
Averages over the last 13 of 26 rows, steps 1460000 to 1580000:
Temp E_pair E_mol PotEng KinEng TotEng Press Volume
0.975169 0 31.2044 31.2044 1.41704 32.6215 0.00057382 61756.5
Loop time of 1.81271 on 4 procs for 250000 steps with 32 atoms

write_restart 	restart._N32_k8.dat
System init for write_restart ...
Generated 0 of 0 mixed pair_coeff terms from geometric mixing rule
unfix mythermofile
unfix myRG2file
undump dum2
angle_coeff   1  16
print ">>>>>>>>>>>>>>>>>>>>>>>>>>>>>>>>>>>>>>>>>>>>>>>>>>>>k: 16 "
>>>>>>>>>>>>>>>>>>>>>>>>>>>>>>>>>>>>>>>>>>>>>>>>>>>>k: 16
run 10000
Generated 0 of 0 mixed pair_coeff terms from geometric mixing rule
Step          Temp          E_pair         E_mol          PotEng         KinEng         TotEng         Press          Volume
1580000   0.98540476     0              31.938168      31.938168      1.4319163      33.370084      0.00094736625  72166.041
Loop time of 0.0639133 on 4 procs for 10000 steps with 32 atoms

dump dum2 all custom 10000 dump_N32_k16.dynamics id type x y z
dump_modify dum2  sort id
run 250000
Generated 0 of 0 mixed pair_coeff terms from geometric mixing rule
Step          Temp          E_pair         E_mol          PotEng         KinEng         TotEng         Press          Volume
1590000   1.2717481      0              31.24959       31.24959       1.8480089      33.097599      0.00065004676  81478.539
Averages over the last 13 of 26 rows, steps 1720000 to 1840000:
Temp E_pair E_mol PotEng KinEng TotEng Press Volume
1.03096 0 31.1691 31.1691 1.49812 32.6672 -0.000269784 56447.2
Loop time of 1.74641 on 4 procs for 250000 steps with 32 atoms

write_restart 	restart._N32_k16.dat
System init for write_restart ...
Generated 0 of 0 mixed pair_coeff terms from geometric mixing rule
unfix mythermofile
unfix myRG2file
undump dum2
angle_coeff   1  32
print ">>>>>>>>>>>>>>>>>>>>>>>>>>>>>>>>>>>>>>>>>>>>>>>>>>>>k: 32 "
>>>>>>>>>>>>>>>>>>>>>>>>>>>>>>>>>>>>>>>>>>>>>>>>>>>>k: 32
run 10000
Generated 0 of 0 mixed pair_coeff terms from geometric mixing rule
Step          Temp          E_pair         E_mol          PotEng         KinEng         TotEng         Press          Volume
1840000   1.0061237      0              31.371174      31.371174      1.4620235      32.833197      0.00023877236  58630.651
Loop time of 0.0753765 on 4 procs for 10000 steps with 32 atoms

dump dum2 all custom 10000 dump_N32_k32.dynamics id type x y z
dump_modify dum2  sort id
run 250000
Generated 0 of 0 mixed pair_coeff terms from geometric mixing rule
Step          Temp          E_pair         E_mol          PotEng         KinEng         TotEng         Press          Volume
1850000   1.0789727      0              31.644282      31.644282      1.5678821      33.212164      0.00045128083  65390.428
Averages over the last 13 of 26 rows, steps 1980000 to 2100000:
Temp E_pair E_mol PotEng KinEng TotEng Press Volume
0.980043 0 31.2248 31.2248 1.42413 32.6489 7.51865e-05 93207.8
Loop time of 1.77806 on 4 procs for 250000 steps with 32 atoms

write_restart 	restart._N32_k32.dat
System init for write_restart ...
Generated 0 of 0 mixed pair_coeff terms from geometric mixing rule
unfix mythermofile
unfix myRG2file
undump dum2
angle_coeff   1  64
print ">>>>>>>>>>>>>>>>>>>>>>>>>>>>>>>>>>>>>>>>>>>>>>>>>>>>k: 64 "
>>>>>>>>>>>>>>>>>>>>>>>>>>>>>>>>>>>>>>>>>>>>>>>>>>>>k: 64
run 10000
Generated 0 of 0 mixed pair_coeff terms from geometric mixing rule
Step          Temp          E_pair         E_mol          PotEng         KinEng         TotEng         Press          Volume
2100000   1.1435595      0              32.087837      32.087837      1.6617349      33.749572      0.00053009744  91187.898
Loop time of 0.0730279 on 4 procs for 10000 steps with 32 atoms

dump dum2 all custom 10000 dump_N32_k64.dynamics id type x y z
dump_modify dum2  sort id
run 250000
Generated 0 of 0 mixed pair_coeff terms from geometric mixing rule
Step          Temp          E_pair         E_mol          PotEng         KinEng         TotEng         Press          Volume
2110000   1.0812444      0              31.29093       31.29093       1.5711833      32.862113     -0.00018695905  99167.962
Averages over the last 13 of 26 rows, steps 2240000 to 2360000:
Temp E_pair E_mol PotEng KinEng TotEng Press Volume
0.994555 0 31.1889 31.1889 1.44521 32.6341 -2.59749e-05 92542.2
Loop time of 1.80575 on 4 procs for 250000 steps with 32 atoms

write_restart 	restart._N32_k64.dat
System init for write_restart ...
Generated 0 of 0 mixed pair_coeff terms from geometric mixing rule
unfix mythermofile
unfix myRG2file
undump dum2
angle_coeff   1  128
print ">>>>>>>>>>>>>>>>>>>>>>>>>>>>>>>>>>>>>>>>>>>>>>>>>>>>k: 128 "
>>>>>>>>>>>>>>>>>>>>>>>>>>>>>>>>>>>>>>>>>>>>>>>>>>>>k: 128
run 10000
Generated 0 of 0 mixed pair_coeff terms from geometric mixing rule
Step          Temp          E_pair         E_mol          PotEng         KinEng         TotEng         Press          Volume
2360000   0.81017875     0              32.03081       32.03081       1.177291       33.208101      0.00036651343  66128.622
Loop time of 0.0753673 on 4 procs for 10000 steps with 32 atoms

dump dum2 all custom 10000 dump_N32_k128.dynamics id type x y z
dump_modify dum2  sort id
run 250000
Generated 0 of 0 mixed pair_coeff terms from geometric mixing rule
Step          Temp          E_pair         E_mol          PotEng         KinEng         TotEng         Press          Volume
2370000   1.023823       0              31.398052      31.398052      1.4877428      32.885795     -0.0018555363   66775.326
Averages over the last 13 of 26 rows, steps 2500000 to 2620000:
Temp E_pair E_mol PotEng KinEng TotEng Press Volume
0.977275 0 31.2583 31.2583 1.4201 32.6784 0.000349672 91298.3
Loop time of 2.20748 on 4 procs for 250000 steps with 32 atoms

write_restart 	restart._N32_k128.dat
System init for write_restart ...
Generated 0 of 0 mixed pair_coeff terms from geometric mixing rule
unfix mythermofile
unfix myRG2file
undump dum2
